*SPICE netlist created from BLIF module rv32_CPU_v2 by blif2BSpice
.include /ef/tech/XFAB/EFXH035C/libs.ref/cdlStub/D_CELLS/stub.cdl
.subckt rv32_CPU_v2 vdd! gnd! clk rst bdo<0> bdo<1> bdo<2> bdo<3> bdo<4> bdo<5> bdo<6> bdo<7> bdo<8> bdo<9> bdo<10> bdo<11> bdo<12> bdo<13> bdo<14> bdo<15> bdo<16> bdo<17> bdo<18> bdo<19> bdo<20> bdo<21> bdo<22> bdo<23> bdo<24> bdo<25> bdo<26> bdo<27> bdo<28> bdo<29> bdo<30> bdo<31> rfRS1<0> rfRS1<1> rfRS1<2> rfRS1<3> rfRS1<4> rfRS1<5> rfRS1<6> rfRS1<7> rfRS1<8> rfRS1<9> rfRS1<10> rfRS1<11> rfRS1<12> rfRS1<13> rfRS1<14> rfRS1<15> rfRS1<16> rfRS1<17> rfRS1<18> rfRS1<19> rfRS1<20> rfRS1<21> rfRS1<22> rfRS1<23> rfRS1<24> rfRS1<25> rfRS1<26> rfRS1<27> rfRS1<28> rfRS1<29> rfRS1<30> rfRS1<31> rfRS2<0> rfRS2<1> rfRS2<2> rfRS2<3> rfRS2<4> rfRS2<5> rfRS2<6> rfRS2<7> rfRS2<8> rfRS2<9> rfRS2<10> rfRS2<11> rfRS2<12> rfRS2<13> rfRS2<14> rfRS2<15> rfRS2<16> rfRS2<17> rfRS2<18> rfRS2<19> rfRS2<20> rfRS2<21> rfRS2<22> rfRS2<23> rfRS2<24> rfRS2<25> rfRS2<26> rfRS2<27> rfRS2<28> rfRS2<29> rfRS2<30> rfRS2<31> extR<0> extR<1> extR<2> extR<3> extR<4> extR<5> extR<6> extR<7> extR<8> extR<9> extR<10> extR<11> extR<12> extR<13> extR<14> extR<15> extR<16> extR<17> extR<18> extR<19> extR<20> extR<21> extR<22> extR<23> extR<24> extR<25> extR<26> extR<27> extR<28> extR<29> extR<30> extR<31> extDone IRQ IRQnum<0> IRQnum<1> IRQnum<2> IRQnum<3> bdi<0> bdi<1> bdi<2> bdi<3> bdi<4> bdi<5> bdi<6> bdi<7> bdi<8> bdi<9> bdi<10> bdi<11> bdi<12> bdi<13> bdi<14> bdi<15> bdi<16> bdi<17> bdi<18> bdi<19> bdi<20> bdi<21> bdi<22> bdi<23> bdi<24> bdi<25> bdi<26> bdi<27> bdi<28> bdi<29> bdi<30> bdi<31> baddr<0> baddr<1> baddr<2> baddr<3> baddr<4> baddr<5> baddr<6> baddr<7> baddr<8> baddr<9> baddr<10> baddr<11> baddr<12> baddr<13> baddr<14> baddr<15> baddr<16> baddr<17> baddr<18> baddr<19> baddr<20> baddr<21> baddr<22> baddr<23> baddr<24> baddr<25> baddr<26> baddr<27> baddr<28> baddr<29> baddr<30> baddr<31> bsz<0> bsz<1> bwr rfwr rfrd<0> rfrd<1> rfrd<2> rfrd<3> rfrd<4> rfrs1<0> rfrs1<1> rfrs1<2> rfrs1<3> rfrs1<4> rfrs2<0> rfrs2<1> rfrs2<2> rfrs2<3> rfrs2<4> rfD<0> rfD<1> rfD<2> rfD<3> rfD<4> rfD<5> rfD<6> rfD<7> rfD<8> rfD<9> rfD<10> rfD<11> rfD<12> rfD<13> rfD<14> rfD<15> rfD<16> rfD<17> rfD<18> rfD<19> rfD<20> rfD<21> rfD<22> rfD<23> rfD<24> rfD<25> rfD<26> rfD<27> rfD<28> rfD<29> rfD<30> rfD<31> extA<0> extA<1> extA<2> extA<3> extA<4> extA<5> extA<6> extA<7> extA<8> extA<9> extA<10> extA<11> extA<12> extA<13> extA<14> extA<15> extA<16> extA<17> extA<18> extA<19> extA<20> extA<21> extA<22> extA<23> extA<24> extA<25> extA<26> extA<27> extA<28> extA<29> extA<30> extA<31> extB<0> extB<1> extB<2> extB<3> extB<4> extB<5> extB<6> extB<7> extB<8> extB<9> extB<10> extB<11> extB<12> extB<13> extB<14> extB<15> extB<16> extB<17> extB<18> extB<19> extB<20> extB<21> extB<22> extB<23> extB<24> extB<25> extB<26> extB<27> extB<28> extB<29> extB<30> extB<31> extStart extFunc3<0> extFunc3<1> extFunc3<2> 
XBUX2_1 CTRL.cyc_bF$buf5 CTRL.cyc_bF$buf0_bF$buf3 gnd! vdd! BUX2
XBUX2_2 CTRL.cyc_bF$buf0 CTRL.cyc_bF$buf0_bF$buf2 gnd! vdd! BUX2
XBUX2_3 CTRL.cyc_bF$buf14 CTRL.cyc_bF$buf0_bF$buf1 gnd! vdd! BUX2
XBUX2_4 CTRL.cyc_bF$buf7 CTRL.cyc_bF$buf0_bF$buf0 gnd! vdd! BUX2
XBUX2_5 CTRL.cyc_bF$buf13 CTRL.cyc_bF$buf1_bF$buf3 gnd! vdd! BUX2
XBUX2_6 CTRL.cyc_bF$buf0 CTRL.cyc_bF$buf1_bF$buf2 gnd! vdd! BUX2
XBUX2_7 CTRL.cyc_bF$buf9 CTRL.cyc_bF$buf1_bF$buf1 gnd! vdd! BUX2
XBUX2_8 CTRL.cyc_bF$buf1 CTRL.cyc_bF$buf1_bF$buf0 gnd! vdd! BUX2
XBUX2_9 CTRL.cyc_bF$buf10 CTRL.cyc_bF$buf2_bF$buf3 gnd! vdd! BUX2
XBUX2_10 CTRL.cyc_bF$buf2 CTRL.cyc_bF$buf2_bF$buf2 gnd! vdd! BUX2
XBUX2_11 CTRL.cyc_bF$buf12 CTRL.cyc_bF$buf2_bF$buf1 gnd! vdd! BUX2
XBUX2_12 CTRL.cyc_bF$buf2 CTRL.cyc_bF$buf2_bF$buf0 gnd! vdd! BUX2
XBUX2_13 CTRL.cyc_bF$buf11 CTRL.cyc_bF$buf3_bF$buf3 gnd! vdd! BUX2
XBUX2_14 CTRL.cyc_bF$buf2 CTRL.cyc_bF$buf3_bF$buf2 gnd! vdd! BUX2
XBUX2_15 CTRL.cyc_bF$buf14 CTRL.cyc_bF$buf3_bF$buf1 gnd! vdd! BUX2
XBUX2_16 CTRL.cyc_bF$buf3 CTRL.cyc_bF$buf3_bF$buf0 gnd! vdd! BUX2
XBUX2_17 CTRL.cyc_bF$buf4 CTRL.cyc_bF$buf4_bF$buf3 gnd! vdd! BUX2
XBUX2_18 CTRL.cyc_bF$buf2 CTRL.cyc_bF$buf4_bF$buf2 gnd! vdd! BUX2
XBUX2_19 CTRL.cyc_bF$buf11 CTRL.cyc_bF$buf4_bF$buf1 gnd! vdd! BUX2
XBUX2_20 CTRL.cyc_bF$buf4 CTRL.cyc_bF$buf4_bF$buf0 gnd! vdd! BUX2
XBUX2_21 CTRL.cyc_bF$buf0 CTRL.cyc_bF$buf5_bF$buf3 gnd! vdd! BUX2
XBUX2_22 CTRL.cyc_bF$buf4 CTRL.cyc_bF$buf5_bF$buf2 gnd! vdd! BUX2
XBUX2_23 CTRL.cyc_bF$buf6 CTRL.cyc_bF$buf5_bF$buf1 gnd! vdd! BUX2
XBUX2_24 CTRL.cyc_bF$buf5 CTRL.cyc_bF$buf5_bF$buf0 gnd! vdd! BUX2
XBUX2_25 CTRL.cyc_bF$buf6 CTRL.cyc_bF$buf6_bF$buf3 gnd! vdd! BUX2
XBUX2_26 CTRL.cyc_bF$buf6 CTRL.cyc_bF$buf6_bF$buf2 gnd! vdd! BUX2
XBUX2_27 CTRL.cyc_bF$buf4 CTRL.cyc_bF$buf6_bF$buf1 gnd! vdd! BUX2
XBUX2_28 CTRL.cyc_bF$buf8 CTRL.cyc_bF$buf6_bF$buf0 gnd! vdd! BUX2
XBUX2_29 CTRL.cyc_bF$buf1 CTRL.cyc_bF$buf7_bF$buf3 gnd! vdd! BUX2
XBUX2_30 CTRL.cyc_bF$buf9 CTRL.cyc_bF$buf7_bF$buf2 gnd! vdd! BUX2
XBUX2_31 CTRL.cyc_bF$buf5 CTRL.cyc_bF$buf7_bF$buf1 gnd! vdd! BUX2
XBUX2_32 CTRL.cyc_bF$buf8 CTRL.cyc_bF$buf7_bF$buf0 gnd! vdd! BUX2
XBUX2_33 CTRL.cyc_bF$buf10 CTRL.cyc_bF$buf8_bF$buf3 gnd! vdd! BUX2
XBUX2_34 CTRL.cyc_bF$buf8 CTRL.cyc_bF$buf8_bF$buf2 gnd! vdd! BUX2
XBUX2_35 CTRL.cyc_bF$buf3 CTRL.cyc_bF$buf8_bF$buf1 gnd! vdd! BUX2
XBUX2_36 CTRL.cyc_bF$buf12 CTRL.cyc_bF$buf8_bF$buf0 gnd! vdd! BUX2
XBUX2_37 CTRL.cyc_bF$buf9 CTRL.cyc_bF$buf9_bF$buf3 gnd! vdd! BUX2
XBUX2_38 CTRL.cyc_bF$buf13 CTRL.cyc_bF$buf9_bF$buf2 gnd! vdd! BUX2
XBUX2_39 CTRL.cyc_bF$buf6 CTRL.cyc_bF$buf9_bF$buf1 gnd! vdd! BUX2
XBUX2_40 CTRL.cyc_bF$buf1 CTRL.cyc_bF$buf9_bF$buf0 gnd! vdd! BUX2
XBUX2_41 clk clk_hier0_bF$buf6 gnd! vdd! BUX2
XBUX2_42 clk clk_hier0_bF$buf5 gnd! vdd! BUX2
XBUX2_43 clk clk_hier0_bF$buf4 gnd! vdd! BUX2
XBUX2_44 clk clk_hier0_bF$buf3 gnd! vdd! BUX2
XBUX2_45 clk clk_hier0_bF$buf2 gnd! vdd! BUX2
XBUX2_46 clk clk_hier0_bF$buf1 gnd! vdd! BUX2
XBUX2_47 clk clk_hier0_bF$buf0 gnd! vdd! BUX2
XBUX2_48 CTRL.cyc_bF$buf1 CTRL.cyc_bF$buf10_bF$buf3 gnd! vdd! BUX2
XBUX2_49 CTRL.cyc_bF$buf9 CTRL.cyc_bF$buf10_bF$buf2 gnd! vdd! BUX2
XBUX2_50 CTRL.cyc_bF$buf10 CTRL.cyc_bF$buf10_bF$buf1 gnd! vdd! BUX2
XBUX2_51 CTRL.cyc_bF$buf10 CTRL.cyc_bF$buf10_bF$buf0 gnd! vdd! BUX2
XBUX2_52 CTRL.cyc_bF$buf14 CTRL.cyc_bF$buf11_bF$buf3 gnd! vdd! BUX2
XBUX2_53 CTRL.cyc_bF$buf0 CTRL.cyc_bF$buf11_bF$buf2 gnd! vdd! BUX2
XBUX2_54 CTRL.cyc_bF$buf3 CTRL.cyc_bF$buf11_bF$buf1 gnd! vdd! BUX2
XBUX2_55 CTRL.cyc_bF$buf13 CTRL.cyc_bF$buf11_bF$buf0 gnd! vdd! BUX2
XBUX2_56 CTRL.cyc_bF$buf12 CTRL.cyc_bF$buf12_bF$buf3 gnd! vdd! BUX2
XBUX2_57 CTRL.cyc_bF$buf3 CTRL.cyc_bF$buf12_bF$buf2 gnd! vdd! BUX2
XBUX2_58 CTRL.cyc_bF$buf8 CTRL.cyc_bF$buf12_bF$buf1 gnd! vdd! BUX2
XBUX2_59 CTRL.cyc_bF$buf11 CTRL.cyc_bF$buf12_bF$buf0 gnd! vdd! BUX2
XBUX2_60 CTRL.cyc_bF$buf7 CTRL.cyc_bF$buf13_bF$buf3 gnd! vdd! BUX2
XBUX2_61 CTRL.cyc_bF$buf12 CTRL.cyc_bF$buf13_bF$buf2 gnd! vdd! BUX2
XBUX2_62 CTRL.cyc_bF$buf10 CTRL.cyc_bF$buf13_bF$buf1 gnd! vdd! BUX2
XBUX2_63 CTRL.cyc_bF$buf13 CTRL.cyc_bF$buf13_bF$buf0 gnd! vdd! BUX2
XBUX2_64 CTRL.cyc_bF$buf14 CTRL.cyc_bF$buf14_bF$buf3 gnd! vdd! BUX2
XBUX2_65 CTRL.cyc_bF$buf5 CTRL.cyc_bF$buf14_bF$buf2 gnd! vdd! BUX2
XBUX2_66 CTRL.cyc_bF$buf14 CTRL.cyc_bF$buf14_bF$buf1 gnd! vdd! BUX2
XBUX2_67 CTRL.cyc_bF$buf7 CTRL.cyc_bF$buf14_bF$buf0 gnd! vdd! BUX2
XBUX2_68 _3247_ _3247__bF$buf4 gnd! vdd! BUX2
XBUX2_69 _3247_ _3247__bF$buf3 gnd! vdd! BUX2
XBUX2_70 _3247_ _3247__bF$buf2 gnd! vdd! BUX2
XBUX2_71 _3247_ _3247__bF$buf1 gnd! vdd! BUX2
XBUX2_72 _3247_ _3247__bF$buf0 gnd! vdd! BUX2
XBUX2_73 _2650_ _2650__bF$buf7 gnd! vdd! BUX2
XBUX2_74 _2650_ _2650__bF$buf6 gnd! vdd! BUX2
XBUX2_75 _2650_ _2650__bF$buf5 gnd! vdd! BUX2
XBUX2_76 _2650_ _2650__bF$buf4 gnd! vdd! BUX2
XBUX2_77 _2650_ _2650__bF$buf3 gnd! vdd! BUX2
XBUX2_78 _2650_ _2650__bF$buf2 gnd! vdd! BUX2
XBUX2_79 _2650_ _2650__bF$buf1 gnd! vdd! BUX2
XBUX2_80 _2650_ _2650__bF$buf0 gnd! vdd! BUX2
XBUX2_81 _3244_ _3244__bF$buf4 gnd! vdd! BUX2
XBUX2_82 _3244_ _3244__bF$buf3 gnd! vdd! BUX2
XBUX2_83 _3244_ _3244__bF$buf2 gnd! vdd! BUX2
XBUX2_84 _3244_ _3244__bF$buf1 gnd! vdd! BUX2
XBUX2_85 _3244_ _3244__bF$buf0 gnd! vdd! BUX2
XBUX2_86 EXT.type EXT.type_bF$buf6 gnd! vdd! BUX2
XBUX2_87 EXT.type EXT.type_bF$buf5 gnd! vdd! BUX2
XBUX2_88 EXT.type EXT.type_bF$buf4 gnd! vdd! BUX2
XBUX2_89 EXT.type EXT.type_bF$buf3 gnd! vdd! BUX2
XBUX2_90 EXT.type EXT.type_bF$buf2 gnd! vdd! BUX2
XBUX2_91 EXT.type EXT.type_bF$buf1 gnd! vdd! BUX2
XBUX2_92 EXT.type EXT.type_bF$buf0 gnd! vdd! BUX2
XBUX2_93 _2647_ _2647__bF$buf4 gnd! vdd! BUX2
XBUX2_94 _2647_ _2647__bF$buf3 gnd! vdd! BUX2
XBUX2_95 _2647_ _2647__bF$buf2 gnd! vdd! BUX2
XBUX2_96 _2647_ _2647__bF$buf1 gnd! vdd! BUX2
XBUX2_97 _2647_ _2647__bF$buf0 gnd! vdd! BUX2
XBUX2_98 CTRL.cu_ext_hold CTRL.cu_ext_hold_bF$buf6 gnd! vdd! BUX2
XBUX2_99 CTRL.cu_ext_hold CTRL.cu_ext_hold_bF$buf5 gnd! vdd! BUX2
XBUX2_100 CTRL.cu_ext_hold CTRL.cu_ext_hold_bF$buf4 gnd! vdd! BUX2
XBUX2_101 CTRL.cu_ext_hold CTRL.cu_ext_hold_bF$buf3 gnd! vdd! BUX2
XBUX2_102 CTRL.cu_ext_hold CTRL.cu_ext_hold_bF$buf2 gnd! vdd! BUX2
XBUX2_103 CTRL.cu_ext_hold CTRL.cu_ext_hold_bF$buf1 gnd! vdd! BUX2
XBUX2_104 CTRL.cu_ext_hold CTRL.cu_ext_hold_bF$buf0 gnd! vdd! BUX2
XBUX2_105 CTRL.IDEC1.cu_custom_inst CTRL.IDEC1.cu_custom_inst_bF$buf5 gnd! vdd! BUX2
XBUX2_106 CTRL.IDEC1.cu_custom_inst CTRL.IDEC1.cu_custom_inst_bF$buf4 gnd! vdd! BUX2
XBUX2_107 CTRL.IDEC1.cu_custom_inst CTRL.IDEC1.cu_custom_inst_bF$buf3 gnd! vdd! BUX2
XBUX2_108 CTRL.IDEC1.cu_custom_inst CTRL.IDEC1.cu_custom_inst_bF$buf2 gnd! vdd! BUX2
XBUX2_109 CTRL.IDEC1.cu_custom_inst CTRL.IDEC1.cu_custom_inst_bF$buf1 gnd! vdd! BUX2
XBUX2_110 CTRL.IDEC1.cu_custom_inst CTRL.IDEC1.cu_custom_inst_bF$buf0 gnd! vdd! BUX2
XBUX2_111 _682_<0> _682__0_bF$buf3 gnd! vdd! BUX2
XBUX2_112 _682_<0> _682__0_bF$buf2 gnd! vdd! BUX2
XBUX2_113 _682_<0> _682__0_bF$buf1 gnd! vdd! BUX2
XBUX2_114 _682_<0> _682__0_bF$buf0 gnd! vdd! BUX2
XBUX2_115 _1242_ _1242__bF$buf4 gnd! vdd! BUX2
XBUX2_116 _1242_ _1242__bF$buf3 gnd! vdd! BUX2
XBUX2_117 _1242_ _1242__bF$buf2 gnd! vdd! BUX2
XBUX2_118 _1242_ _1242__bF$buf1 gnd! vdd! BUX2
XBUX2_119 _1242_ _1242__bF$buf0 gnd! vdd! BUX2
XBUX2_120 CTRL.cu_r2_src CTRL.cu_r2_src_bF$buf5 gnd! vdd! BUX2
XBUX2_121 CTRL.cu_r2_src CTRL.cu_r2_src_bF$buf4 gnd! vdd! BUX2
XBUX2_122 CTRL.cu_r2_src CTRL.cu_r2_src_bF$buf3 gnd! vdd! BUX2
XBUX2_123 CTRL.cu_r2_src CTRL.cu_r2_src_bF$buf2 gnd! vdd! BUX2
XBUX2_124 CTRL.cu_r2_src CTRL.cu_r2_src_bF$buf1 gnd! vdd! BUX2
XBUX2_125 CTRL.cu_r2_src CTRL.cu_r2_src_bF$buf0 gnd! vdd! BUX2
XBUX2_126 _476_ _476__bF$buf4 gnd! vdd! BUX2
XBUX2_127 _476_ _476__bF$buf3 gnd! vdd! BUX2
XBUX2_128 _476_ _476__bF$buf2 gnd! vdd! BUX2
XBUX2_129 _476_ _476__bF$buf1 gnd! vdd! BUX2
XBUX2_130 _476_ _476__bF$buf0 gnd! vdd! BUX2
XBUX2_131 _1048_ _1048__bF$buf4 gnd! vdd! BUX2
XBUX2_132 _1048_ _1048__bF$buf3 gnd! vdd! BUX2
XBUX2_133 _1048_ _1048__bF$buf2 gnd! vdd! BUX2
XBUX2_134 _1048_ _1048__bF$buf1 gnd! vdd! BUX2
XBUX2_135 _1048_ _1048__bF$buf0 gnd! vdd! BUX2
XBUX2_136 CTRL.IDEC1.cu_load_inst CTRL.IDEC1.cu_load_inst_bF$buf4 gnd! vdd! BUX2
XBUX2_137 CTRL.IDEC1.cu_load_inst CTRL.IDEC1.cu_load_inst_bF$buf3 gnd! vdd! BUX2
XBUX2_138 CTRL.IDEC1.cu_load_inst CTRL.IDEC1.cu_load_inst_bF$buf2 gnd! vdd! BUX2
XBUX2_139 CTRL.IDEC1.cu_load_inst CTRL.IDEC1.cu_load_inst_bF$buf1 gnd! vdd! BUX2
XBUX2_140 CTRL.IDEC1.cu_load_inst CTRL.IDEC1.cu_load_inst_bF$buf0 gnd! vdd! BUX2
XBUX2_141 _39_ _39__bF$buf4 gnd! vdd! BUX2
XBUX2_142 _39_ _39__bF$buf3 gnd! vdd! BUX2
XBUX2_143 _39_ _39__bF$buf2 gnd! vdd! BUX2
XBUX2_144 _39_ _39__bF$buf1 gnd! vdd! BUX2
XBUX2_145 _39_ _39__bF$buf0 gnd! vdd! BUX2
XBUX2_146 _952_ _952__bF$buf5 gnd! vdd! BUX2
XBUX2_147 _952_ _952__bF$buf4 gnd! vdd! BUX2
XBUX2_148 _952_ _952__bF$buf3 gnd! vdd! BUX2
XBUX2_149 _952_ _952__bF$buf2 gnd! vdd! BUX2
XBUX2_150 _952_ _952__bF$buf1 gnd! vdd! BUX2
XBUX2_151 _952_ _952__bF$buf0 gnd! vdd! BUX2
XBUX2_152 clk_hier0_bF$buf2 clk_bF$buf53 gnd! vdd! BUX2
XBUX2_153 clk_hier0_bF$buf4 clk_bF$buf52 gnd! vdd! BUX2
XBUX2_154 clk_hier0_bF$buf0 clk_bF$buf51 gnd! vdd! BUX2
XBUX2_155 clk_hier0_bF$buf5 clk_bF$buf50 gnd! vdd! BUX2
XBUX2_156 clk_hier0_bF$buf5 clk_bF$buf49 gnd! vdd! BUX2
XBUX2_157 clk_hier0_bF$buf6 clk_bF$buf48 gnd! vdd! BUX2
XBUX2_158 clk_hier0_bF$buf6 clk_bF$buf47 gnd! vdd! BUX2
XBUX2_159 clk_hier0_bF$buf0 clk_bF$buf46 gnd! vdd! BUX2
XBUX2_160 clk_hier0_bF$buf0 clk_bF$buf45 gnd! vdd! BUX2
XBUX2_161 clk_hier0_bF$buf5 clk_bF$buf44 gnd! vdd! BUX2
XBUX2_162 clk_hier0_bF$buf3 clk_bF$buf43 gnd! vdd! BUX2
XBUX2_163 clk_hier0_bF$buf2 clk_bF$buf42 gnd! vdd! BUX2
XBUX2_164 clk_hier0_bF$buf1 clk_bF$buf41 gnd! vdd! BUX2
XBUX2_165 clk_hier0_bF$buf5 clk_bF$buf40 gnd! vdd! BUX2
XBUX2_166 clk_hier0_bF$buf5 clk_bF$buf39 gnd! vdd! BUX2
XBUX2_167 clk_hier0_bF$buf3 clk_bF$buf38 gnd! vdd! BUX2
XBUX2_168 clk_hier0_bF$buf2 clk_bF$buf37 gnd! vdd! BUX2
XBUX2_169 clk_hier0_bF$buf3 clk_bF$buf36 gnd! vdd! BUX2
XBUX2_170 clk_hier0_bF$buf2 clk_bF$buf35 gnd! vdd! BUX2
XBUX2_171 clk_hier0_bF$buf0 clk_bF$buf34 gnd! vdd! BUX2
XBUX2_172 clk_hier0_bF$buf3 clk_bF$buf33 gnd! vdd! BUX2
XBUX2_173 clk_hier0_bF$buf2 clk_bF$buf32 gnd! vdd! BUX2
XBUX2_174 clk_hier0_bF$buf3 clk_bF$buf31 gnd! vdd! BUX2
XBUX2_175 clk_hier0_bF$buf1 clk_bF$buf30 gnd! vdd! BUX2
XBUX2_176 clk_hier0_bF$buf6 clk_bF$buf29 gnd! vdd! BUX2
XBUX2_177 clk_hier0_bF$buf3 clk_bF$buf28 gnd! vdd! BUX2
XBUX2_178 clk_hier0_bF$buf1 clk_bF$buf27 gnd! vdd! BUX2
XBUX2_179 clk_hier0_bF$buf4 clk_bF$buf26 gnd! vdd! BUX2
XBUX2_180 clk_hier0_bF$buf2 clk_bF$buf25 gnd! vdd! BUX2
XBUX2_181 clk_hier0_bF$buf4 clk_bF$buf24 gnd! vdd! BUX2
XBUX2_182 clk_hier0_bF$buf6 clk_bF$buf23 gnd! vdd! BUX2
XBUX2_183 clk_hier0_bF$buf5 clk_bF$buf22 gnd! vdd! BUX2
XBUX2_184 clk_hier0_bF$buf0 clk_bF$buf21 gnd! vdd! BUX2
XBUX2_185 clk_hier0_bF$buf3 clk_bF$buf20 gnd! vdd! BUX2
XBUX2_186 clk_hier0_bF$buf1 clk_bF$buf19 gnd! vdd! BUX2
XBUX2_187 clk_hier0_bF$buf4 clk_bF$buf18 gnd! vdd! BUX2
XBUX2_188 clk_hier0_bF$buf1 clk_bF$buf17 gnd! vdd! BUX2
XBUX2_189 clk_hier0_bF$buf5 clk_bF$buf16 gnd! vdd! BUX2
XBUX2_190 clk_hier0_bF$buf2 clk_bF$buf15 gnd! vdd! BUX2
XBUX2_191 clk_hier0_bF$buf0 clk_bF$buf14 gnd! vdd! BUX2
XBUX2_192 clk_hier0_bF$buf3 clk_bF$buf13 gnd! vdd! BUX2
XBUX2_193 clk_hier0_bF$buf4 clk_bF$buf12 gnd! vdd! BUX2
XBUX2_194 clk_hier0_bF$buf6 clk_bF$buf11 gnd! vdd! BUX2
XBUX2_195 clk_hier0_bF$buf1 clk_bF$buf10 gnd! vdd! BUX2
XBUX2_196 clk_hier0_bF$buf2 clk_bF$buf9 gnd! vdd! BUX2
XBUX2_197 clk_hier0_bF$buf1 clk_bF$buf8 gnd! vdd! BUX2
XBUX2_198 clk_hier0_bF$buf6 clk_bF$buf7 gnd! vdd! BUX2
XBUX2_199 clk_hier0_bF$buf4 clk_bF$buf6 gnd! vdd! BUX2
XBUX2_200 clk_hier0_bF$buf4 clk_bF$buf5 gnd! vdd! BUX2
XBUX2_201 clk_hier0_bF$buf6 clk_bF$buf4 gnd! vdd! BUX2
XBUX2_202 clk_hier0_bF$buf6 clk_bF$buf3 gnd! vdd! BUX2
XBUX2_203 clk_hier0_bF$buf4 clk_bF$buf2 gnd! vdd! BUX2
XBUX2_204 clk_hier0_bF$buf5 clk_bF$buf1 gnd! vdd! BUX2
XBUX2_205 clk_hier0_bF$buf0 clk_bF$buf0 gnd! vdd! BUX2
XBUX2_206 _1524_ _1524__bF$buf3 gnd! vdd! BUX2
XBUX2_207 _1524_ _1524__bF$buf2 gnd! vdd! BUX2
XBUX2_208 _1524_ _1524__bF$buf1 gnd! vdd! BUX2
XBUX2_209 _1524_ _1524__bF$buf0 gnd! vdd! BUX2
XBUX2_210 _473_ _473__bF$buf5 gnd! vdd! BUX2
XBUX2_211 _473_ _473__bF$buf4 gnd! vdd! BUX2
XBUX2_212 _473_ _473__bF$buf3 gnd! vdd! BUX2
XBUX2_213 _473_ _473__bF$buf2 gnd! vdd! BUX2
XBUX2_214 _473_ _473__bF$buf1 gnd! vdd! BUX2
XBUX2_215 _473_ _473__bF$buf0 gnd! vdd! BUX2
XBUX2_216 CNTR.ld_cycle CNTR.ld_cycle_bF$buf6 gnd! vdd! BUX2
XBUX2_217 CNTR.ld_cycle CNTR.ld_cycle_bF$buf5 gnd! vdd! BUX2
XBUX2_218 CNTR.ld_cycle CNTR.ld_cycle_bF$buf4 gnd! vdd! BUX2
XBUX2_219 CNTR.ld_cycle CNTR.ld_cycle_bF$buf3 gnd! vdd! BUX2
XBUX2_220 CNTR.ld_cycle CNTR.ld_cycle_bF$buf2 gnd! vdd! BUX2
XBUX2_221 CNTR.ld_cycle CNTR.ld_cycle_bF$buf1 gnd! vdd! BUX2
XBUX2_222 CNTR.ld_cycle CNTR.ld_cycle_bF$buf0 gnd! vdd! BUX2
XBUX2_223 _36_ _36__bF$buf3 gnd! vdd! BUX2
XBUX2_224 _36_ _36__bF$buf2 gnd! vdd! BUX2
XBUX2_225 _36_ _36__bF$buf1 gnd! vdd! BUX2
XBUX2_226 _36_ _36__bF$buf0 gnd! vdd! BUX2
XBUX2_227 _1233_ _1233__bF$buf4 gnd! vdd! BUX2
XBUX2_228 _1233_ _1233__bF$buf3 gnd! vdd! BUX2
XBUX2_229 _1233_ _1233__bF$buf2 gnd! vdd! BUX2
XBUX2_230 _1233_ _1233__bF$buf1 gnd! vdd! BUX2
XBUX2_231 _1233_ _1233__bF$buf0 gnd! vdd! BUX2
XBUX2_232 _1230_ _1230__bF$buf5 gnd! vdd! BUX2
XBUX2_233 _1230_ _1230__bF$buf4 gnd! vdd! BUX2
XBUX2_234 _1230_ _1230__bF$buf3 gnd! vdd! BUX2
XBUX2_235 _1230_ _1230__bF$buf2 gnd! vdd! BUX2
XBUX2_236 _1230_ _1230__bF$buf1 gnd! vdd! BUX2
XBUX2_237 _1230_ _1230__bF$buf0 gnd! vdd! BUX2
XBUX2_238 _1227_ _1227__bF$buf6 gnd! vdd! BUX2
XBUX2_239 _1227_ _1227__bF$buf5 gnd! vdd! BUX2
XBUX2_240 _1227_ _1227__bF$buf4 gnd! vdd! BUX2
XBUX2_241 _1227_ _1227__bF$buf3 gnd! vdd! BUX2
XBUX2_242 _1227_ _1227__bF$buf2 gnd! vdd! BUX2
XBUX2_243 _1227_ _1227__bF$buf1 gnd! vdd! BUX2
XBUX2_244 _1227_ _1227__bF$buf0 gnd! vdd! BUX2
XBUX2_245 _3117_ _3117__bF$buf7 gnd! vdd! BUX2
XBUX2_246 _3117_ _3117__bF$buf6 gnd! vdd! BUX2
XBUX2_247 _3117_ _3117__bF$buf5 gnd! vdd! BUX2
XBUX2_248 _3117_ _3117__bF$buf4 gnd! vdd! BUX2
XBUX2_249 _3117_ _3117__bF$buf3 gnd! vdd! BUX2
XBUX2_250 _3117_ _3117__bF$buf2 gnd! vdd! BUX2
XBUX2_251 _3117_ _3117__bF$buf1 gnd! vdd! BUX2
XBUX2_252 _3117_ _3117__bF$buf0 gnd! vdd! BUX2
XBUX2_253 _1221_ _1221__bF$buf4 gnd! vdd! BUX2
XBUX2_254 _1221_ _1221__bF$buf3 gnd! vdd! BUX2
XBUX2_255 _1221_ _1221__bF$buf2 gnd! vdd! BUX2
XBUX2_256 _1221_ _1221__bF$buf1 gnd! vdd! BUX2
XBUX2_257 _1221_ _1221__bF$buf0 gnd! vdd! BUX2
XBUX2_258 _2329_ _2329__bF$buf4 gnd! vdd! BUX2
XBUX2_259 _2329_ _2329__bF$buf3 gnd! vdd! BUX2
XBUX2_260 _2329_ _2329__bF$buf2 gnd! vdd! BUX2
XBUX2_261 _2329_ _2329__bF$buf1 gnd! vdd! BUX2
XBUX2_262 _2329_ _2329__bF$buf0 gnd! vdd! BUX2
XBUX2_263 _2367_ _2367__bF$buf4 gnd! vdd! BUX2
XBUX2_264 _2367_ _2367__bF$buf3 gnd! vdd! BUX2
XBUX2_265 _2367_ _2367__bF$buf2 gnd! vdd! BUX2
XBUX2_266 _2367_ _2367__bF$buf1 gnd! vdd! BUX2
XBUX2_267 _2367_ _2367__bF$buf0 gnd! vdd! BUX2
XBUX2_268 _21_ _21__bF$buf7 gnd! vdd! BUX2
XBUX2_269 _21_ _21__bF$buf6 gnd! vdd! BUX2
XBUX2_270 _21_ _21__bF$buf5 gnd! vdd! BUX2
XBUX2_271 _21_ _21__bF$buf4 gnd! vdd! BUX2
XBUX2_272 _21_ _21__bF$buf3 gnd! vdd! BUX2
XBUX2_273 _21_ _21__bF$buf2 gnd! vdd! BUX2
XBUX2_274 _21_ _21__bF$buf1 gnd! vdd! BUX2
XBUX2_275 _21_ _21__bF$buf0 gnd! vdd! BUX2
XBUX2_276 CTRL.cu_r1_src CTRL.cu_r1_src_bF$buf3 gnd! vdd! BUX2
XBUX2_277 CTRL.cu_r1_src CTRL.cu_r1_src_bF$buf2 gnd! vdd! BUX2
XBUX2_278 CTRL.cu_r1_src CTRL.cu_r1_src_bF$buf1 gnd! vdd! BUX2
XBUX2_279 CTRL.cu_r1_src CTRL.cu_r1_src_bF$buf0 gnd! vdd! BUX2
XBUX2_280 CTRL.IDEC1.cu_system_inst CTRL.IDEC1.cu_system_inst_bF$buf7 gnd! vdd! BUX2
XBUX2_281 CTRL.IDEC1.cu_system_inst CTRL.IDEC1.cu_system_inst_bF$buf6 gnd! vdd! BUX2
XBUX2_282 CTRL.IDEC1.cu_system_inst CTRL.IDEC1.cu_system_inst_bF$buf5 gnd! vdd! BUX2
XBUX2_283 CTRL.IDEC1.cu_system_inst CTRL.IDEC1.cu_system_inst_bF$buf4 gnd! vdd! BUX2
XBUX2_284 CTRL.IDEC1.cu_system_inst CTRL.IDEC1.cu_system_inst_bF$buf3 gnd! vdd! BUX2
XBUX2_285 CTRL.IDEC1.cu_system_inst CTRL.IDEC1.cu_system_inst_bF$buf2 gnd! vdd! BUX2
XBUX2_286 CTRL.IDEC1.cu_system_inst CTRL.IDEC1.cu_system_inst_bF$buf1 gnd! vdd! BUX2
XBUX2_287 CTRL.IDEC1.cu_system_inst CTRL.IDEC1.cu_system_inst_bF$buf0 gnd! vdd! BUX2
XBUX2_288 _931_ _931__bF$buf5 gnd! vdd! BUX2
XBUX2_289 _931_ _931__bF$buf4 gnd! vdd! BUX2
XBUX2_290 _931_ _931__bF$buf3 gnd! vdd! BUX2
XBUX2_291 _931_ _931__bF$buf2 gnd! vdd! BUX2
XBUX2_292 _931_ _931__bF$buf1 gnd! vdd! BUX2
XBUX2_293 _931_ _931__bF$buf0 gnd! vdd! BUX2
XBUX2_294 CTRL.cu_alu_b_src CTRL.cu_alu_b_src_bF$buf4 gnd! vdd! BUX2
XBUX2_295 CTRL.cu_alu_b_src CTRL.cu_alu_b_src_bF$buf3 gnd! vdd! BUX2
XBUX2_296 CTRL.cu_alu_b_src CTRL.cu_alu_b_src_bF$buf2 gnd! vdd! BUX2
XBUX2_297 CTRL.cu_alu_b_src CTRL.cu_alu_b_src_bF$buf1 gnd! vdd! BUX2
XBUX2_298 CTRL.cu_alu_b_src CTRL.cu_alu_b_src_bF$buf0 gnd! vdd! BUX2
XBUX2_299 _3246_ _3246__bF$buf4 gnd! vdd! BUX2
XBUX2_300 _3246_ _3246__bF$buf3 gnd! vdd! BUX2
XBUX2_301 _3246_ _3246__bF$buf2 gnd! vdd! BUX2
XBUX2_302 _3246_ _3246__bF$buf1 gnd! vdd! BUX2
XBUX2_303 _3246_ _3246__bF$buf0 gnd! vdd! BUX2
XBUX2_304 _2458_ _2458__bF$buf5 gnd! vdd! BUX2
XBUX2_305 _2458_ _2458__bF$buf4 gnd! vdd! BUX2
XBUX2_306 _2458_ _2458__bF$buf3 gnd! vdd! BUX2
XBUX2_307 _2458_ _2458__bF$buf2 gnd! vdd! BUX2
XBUX2_308 _2458_ _2458__bF$buf1 gnd! vdd! BUX2
XBUX2_309 _2458_ _2458__bF$buf0 gnd! vdd! BUX2
XBUX2_310 _1059_ _1059__bF$buf3 gnd! vdd! BUX2
XBUX2_311 _1059_ _1059__bF$buf2 gnd! vdd! BUX2
XBUX2_312 _1059_ _1059__bF$buf1 gnd! vdd! BUX2
XBUX2_313 _1059_ _1059__bF$buf0 gnd! vdd! BUX2
XBUX2_314 _1212_ _1212__bF$buf4 gnd! vdd! BUX2
XBUX2_315 _1212_ _1212__bF$buf3 gnd! vdd! BUX2
XBUX2_316 _1212_ _1212__bF$buf2 gnd! vdd! BUX2
XBUX2_317 _1212_ _1212__bF$buf1 gnd! vdd! BUX2
XBUX2_318 _1212_ _1212__bF$buf0 gnd! vdd! BUX2
XBUX2_319 _2646_ _2646__bF$buf3 gnd! vdd! BUX2
XBUX2_320 _2646_ _2646__bF$buf2 gnd! vdd! BUX2
XBUX2_321 _2646_ _2646__bF$buf1 gnd! vdd! BUX2
XBUX2_322 _2646_ _2646__bF$buf0 gnd! vdd! BUX2
XBUX2_323 _866_ _866__bF$buf5 gnd! vdd! BUX2
XBUX2_324 _866_ _866__bF$buf4 gnd! vdd! BUX2
XBUX2_325 _866_ _866__bF$buf3 gnd! vdd! BUX2
XBUX2_326 _866_ _866__bF$buf2 gnd! vdd! BUX2
XBUX2_327 _866_ _866__bF$buf1 gnd! vdd! BUX2
XBUX2_328 _866_ _866__bF$buf0 gnd! vdd! BUX2
XBUX2_329 _2643_ _2643__bF$buf5 gnd! vdd! BUX2
XBUX2_330 _2643_ _2643__bF$buf4 gnd! vdd! BUX2
XBUX2_331 _2643_ _2643__bF$buf3 gnd! vdd! BUX2
XBUX2_332 _2643_ _2643__bF$buf2 gnd! vdd! BUX2
XBUX2_333 _2643_ _2643__bF$buf1 gnd! vdd! BUX2
XBUX2_334 _2643_ _2643__bF$buf0 gnd! vdd! BUX2
XBUX2_335 CTRL.IDEC1.cu_auipc_inst CTRL.IDEC1.cu_auipc_inst_bF$buf4 gnd! vdd! BUX2
XBUX2_336 CTRL.IDEC1.cu_auipc_inst CTRL.IDEC1.cu_auipc_inst_bF$buf3 gnd! vdd! BUX2
XBUX2_337 CTRL.IDEC1.cu_auipc_inst CTRL.IDEC1.cu_auipc_inst_bF$buf2 gnd! vdd! BUX2
XBUX2_338 CTRL.IDEC1.cu_auipc_inst CTRL.IDEC1.cu_auipc_inst_bF$buf1 gnd! vdd! BUX2
XBUX2_339 CTRL.IDEC1.cu_auipc_inst CTRL.IDEC1.cu_auipc_inst_bF$buf0 gnd! vdd! BUX2
XBUX2_340 CTRL.cu_csr_rd_s1 CTRL.cu_csr_rd_s1_bF$buf7 gnd! vdd! BUX2
XBUX2_341 CTRL.cu_csr_rd_s1 CTRL.cu_csr_rd_s1_bF$buf6 gnd! vdd! BUX2
XBUX2_342 CTRL.cu_csr_rd_s1 CTRL.cu_csr_rd_s1_bF$buf5 gnd! vdd! BUX2
XBUX2_343 CTRL.cu_csr_rd_s1 CTRL.cu_csr_rd_s1_bF$buf4 gnd! vdd! BUX2
XBUX2_344 CTRL.cu_csr_rd_s1 CTRL.cu_csr_rd_s1_bF$buf3 gnd! vdd! BUX2
XBUX2_345 CTRL.cu_csr_rd_s1 CTRL.cu_csr_rd_s1_bF$buf2 gnd! vdd! BUX2
XBUX2_346 CTRL.cu_csr_rd_s1 CTRL.cu_csr_rd_s1_bF$buf1 gnd! vdd! BUX2
XBUX2_347 CTRL.cu_csr_rd_s1 CTRL.cu_csr_rd_s1_bF$buf0 gnd! vdd! BUX2
XBUX2_348 _1203_ _1203__bF$buf4 gnd! vdd! BUX2
XBUX2_349 _1203_ _1203__bF$buf3 gnd! vdd! BUX2
XBUX2_350 _1203_ _1203__bF$buf2 gnd! vdd! BUX2
XBUX2_351 _1203_ _1203__bF$buf1 gnd! vdd! BUX2
XBUX2_352 _1203_ _1203__bF$buf0 gnd! vdd! BUX2
XBUX2_353 _1526_ _1526__bF$buf4 gnd! vdd! BUX2
XBUX2_354 _1526_ _1526__bF$buf3 gnd! vdd! BUX2
XBUX2_355 _1526_ _1526__bF$buf2 gnd! vdd! BUX2
XBUX2_356 _1526_ _1526__bF$buf1 gnd! vdd! BUX2
XBUX2_357 _1526_ _1526__bF$buf0 gnd! vdd! BUX2
XBUX2_358 _434_ _434__bF$buf3 gnd! vdd! BUX2
XBUX2_359 _434_ _434__bF$buf2 gnd! vdd! BUX2
XBUX2_360 _434_ _434__bF$buf1 gnd! vdd! BUX2
XBUX2_361 _434_ _434__bF$buf0 gnd! vdd! BUX2
XBUX2_362 _1235_ _1235__bF$buf4 gnd! vdd! BUX2
XBUX2_363 _1235_ _1235__bF$buf3 gnd! vdd! BUX2
XBUX2_364 _1235_ _1235__bF$buf2 gnd! vdd! BUX2
XBUX2_365 _1235_ _1235__bF$buf1 gnd! vdd! BUX2
XBUX2_366 _1235_ _1235__bF$buf0 gnd! vdd! BUX2
XBUX2_367 _1329_ _1329__bF$buf4 gnd! vdd! BUX2
XBUX2_368 _1329_ _1329__bF$buf3 gnd! vdd! BUX2
XBUX2_369 _1329_ _1329__bF$buf2 gnd! vdd! BUX2
XBUX2_370 _1329_ _1329__bF$buf1 gnd! vdd! BUX2
XBUX2_371 _1329_ _1329__bF$buf0 gnd! vdd! BUX2
XBUX2_372 _32_ _32__bF$buf4 gnd! vdd! BUX2
XBUX2_373 _32_ _32__bF$buf3 gnd! vdd! BUX2
XBUX2_374 _32_ _32__bF$buf2 gnd! vdd! BUX2
XBUX2_375 _32_ _32__bF$buf1 gnd! vdd! BUX2
XBUX2_376 _32_ _32__bF$buf0 gnd! vdd! BUX2
XBUX2_377 _29_ _29__bF$buf6 gnd! vdd! BUX2
XBUX2_378 _29_ _29__bF$buf5 gnd! vdd! BUX2
XBUX2_379 _29_ _29__bF$buf4 gnd! vdd! BUX2
XBUX2_380 _29_ _29__bF$buf3 gnd! vdd! BUX2
XBUX2_381 _29_ _29__bF$buf2 gnd! vdd! BUX2
XBUX2_382 _29_ _29__bF$buf1 gnd! vdd! BUX2
XBUX2_383 _29_ _29__bF$buf0 gnd! vdd! BUX2
XBUX2_384 _2243_ _2243__bF$buf7 gnd! vdd! BUX2
XBUX2_385 _2243_ _2243__bF$buf6 gnd! vdd! BUX2
XBUX2_386 _2243_ _2243__bF$buf5 gnd! vdd! BUX2
XBUX2_387 _2243_ _2243__bF$buf4 gnd! vdd! BUX2
XBUX2_388 _2243_ _2243__bF$buf3 gnd! vdd! BUX2
XBUX2_389 _2243_ _2243__bF$buf2 gnd! vdd! BUX2
XBUX2_390 _2243_ _2243__bF$buf1 gnd! vdd! BUX2
XBUX2_391 _2243_ _2243__bF$buf0 gnd! vdd! BUX2
XBUX2_392 CNTR.ld_timer CNTR.ld_timer_bF$buf4 gnd! vdd! BUX2
XBUX2_393 CNTR.ld_timer CNTR.ld_timer_bF$buf3 gnd! vdd! BUX2
XBUX2_394 CNTR.ld_timer CNTR.ld_timer_bF$buf2 gnd! vdd! BUX2
XBUX2_395 CNTR.ld_timer CNTR.ld_timer_bF$buf1 gnd! vdd! BUX2
XBUX2_396 CNTR.ld_timer CNTR.ld_timer_bF$buf0 gnd! vdd! BUX2
XBUX2_397 _1226_ _1226__bF$buf6 gnd! vdd! BUX2
XBUX2_398 _1226_ _1226__bF$buf5 gnd! vdd! BUX2
XBUX2_399 _1226_ _1226__bF$buf4 gnd! vdd! BUX2
XBUX2_400 _1226_ _1226__bF$buf3 gnd! vdd! BUX2
XBUX2_401 _1226_ _1226__bF$buf2 gnd! vdd! BUX2
XBUX2_402 _1226_ _1226__bF$buf1 gnd! vdd! BUX2
XBUX2_403 _1226_ _1226__bF$buf0 gnd! vdd! BUX2
XBUX2_404 _595_ _595__bF$buf4 gnd! vdd! BUX2
XBUX2_405 _595_ _595__bF$buf3 gnd! vdd! BUX2
XBUX2_406 _595_ _595__bF$buf2 gnd! vdd! BUX2
XBUX2_407 _595_ _595__bF$buf1 gnd! vdd! BUX2
XBUX2_408 _595_ _595__bF$buf0 gnd! vdd! BUX2
XBUX2_409 _23_ _23__bF$buf6 gnd! vdd! BUX2
XBUX2_410 _23_ _23__bF$buf5 gnd! vdd! BUX2
XBUX2_411 _23_ _23__bF$buf4 gnd! vdd! BUX2
XBUX2_412 _23_ _23__bF$buf3 gnd! vdd! BUX2
XBUX2_413 _23_ _23__bF$buf2 gnd! vdd! BUX2
XBUX2_414 _23_ _23__bF$buf1 gnd! vdd! BUX2
XBUX2_415 _23_ _23__bF$buf0 gnd! vdd! BUX2
XBUX2_416 CTRL.IDEC1.cu_jalr_inst CTRL.IDEC1.cu_jalr_inst_bF$buf5 gnd! vdd! BUX2
XBUX2_417 CTRL.IDEC1.cu_jalr_inst CTRL.IDEC1.cu_jalr_inst_bF$buf4 gnd! vdd! BUX2
XBUX2_418 CTRL.IDEC1.cu_jalr_inst CTRL.IDEC1.cu_jalr_inst_bF$buf3 gnd! vdd! BUX2
XBUX2_419 CTRL.IDEC1.cu_jalr_inst CTRL.IDEC1.cu_jalr_inst_bF$buf2 gnd! vdd! BUX2
XBUX2_420 CTRL.IDEC1.cu_jalr_inst CTRL.IDEC1.cu_jalr_inst_bF$buf1 gnd! vdd! BUX2
XBUX2_421 CTRL.IDEC1.cu_jalr_inst CTRL.IDEC1.cu_jalr_inst_bF$buf0 gnd! vdd! BUX2
XBUX2_422 _1252_ _1252__bF$buf5 gnd! vdd! BUX2
XBUX2_423 _1252_ _1252__bF$buf4 gnd! vdd! BUX2
XBUX2_424 _1252_ _1252__bF$buf3 gnd! vdd! BUX2
XBUX2_425 _1252_ _1252__bF$buf2 gnd! vdd! BUX2
XBUX2_426 _1252_ _1252__bF$buf1 gnd! vdd! BUX2
XBUX2_427 _1252_ _1252__bF$buf0 gnd! vdd! BUX2
XBUX2_428 _2686_ _2686__bF$buf3 gnd! vdd! BUX2
XBUX2_429 _2686_ _2686__bF$buf2 gnd! vdd! BUX2
XBUX2_430 _2686_ _2686__bF$buf1 gnd! vdd! BUX2
XBUX2_431 _2686_ _2686__bF$buf0 gnd! vdd! BUX2
XBUX2_432 CTRL.cu_pc_s2 CTRL.cu_pc_s2_bF$buf7 gnd! vdd! BUX2
XBUX2_433 CTRL.cu_pc_s2 CTRL.cu_pc_s2_bF$buf6 gnd! vdd! BUX2
XBUX2_434 CTRL.cu_pc_s2 CTRL.cu_pc_s2_bF$buf5 gnd! vdd! BUX2
XBUX2_435 CTRL.cu_pc_s2 CTRL.cu_pc_s2_bF$buf4 gnd! vdd! BUX2
XBUX2_436 CTRL.cu_pc_s2 CTRL.cu_pc_s2_bF$buf3 gnd! vdd! BUX2
XBUX2_437 CTRL.cu_pc_s2 CTRL.cu_pc_s2_bF$buf2 gnd! vdd! BUX2
XBUX2_438 CTRL.cu_pc_s2 CTRL.cu_pc_s2_bF$buf1 gnd! vdd! BUX2
XBUX2_439 CTRL.cu_pc_s2 CTRL.cu_pc_s2_bF$buf0 gnd! vdd! BUX2
XBUX2_440 CTRL.cu_pc_s3 CTRL.cu_pc_s3_bF$buf4 gnd! vdd! BUX2
XBUX2_441 CTRL.cu_pc_s3 CTRL.cu_pc_s3_bF$buf3 gnd! vdd! BUX2
XBUX2_442 CTRL.cu_pc_s3 CTRL.cu_pc_s3_bF$buf2 gnd! vdd! BUX2
XBUX2_443 CTRL.cu_pc_s3 CTRL.cu_pc_s3_bF$buf1 gnd! vdd! BUX2
XBUX2_444 CTRL.cu_pc_s3 CTRL.cu_pc_s3_bF$buf0 gnd! vdd! BUX2
XBUX2_445 CTRL.cu_pc_s4 CTRL.cu_pc_s4_bF$buf5 gnd! vdd! BUX2
XBUX2_446 CTRL.cu_pc_s4 CTRL.cu_pc_s4_bF$buf4 gnd! vdd! BUX2
XBUX2_447 CTRL.cu_pc_s4 CTRL.cu_pc_s4_bF$buf3 gnd! vdd! BUX2
XBUX2_448 CTRL.cu_pc_s4 CTRL.cu_pc_s4_bF$buf2 gnd! vdd! BUX2
XBUX2_449 CTRL.cu_pc_s4 CTRL.cu_pc_s4_bF$buf1 gnd! vdd! BUX2
XBUX2_450 CTRL.cu_pc_s4 CTRL.cu_pc_s4_bF$buf0 gnd! vdd! BUX2
XBUX2_451 _682_<1> _682__1_bF$buf4 gnd! vdd! BUX2
XBUX2_452 _682_<1> _682__1_bF$buf3 gnd! vdd! BUX2
XBUX2_453 _682_<1> _682__1_bF$buf2 gnd! vdd! BUX2
XBUX2_454 _682_<1> _682__1_bF$buf1 gnd! vdd! BUX2
XBUX2_455 _682_<1> _682__1_bF$buf0 gnd! vdd! BUX2
XBUX2_456 _1240_ _1240__bF$buf6 gnd! vdd! BUX2
XBUX2_457 _1240_ _1240__bF$buf5 gnd! vdd! BUX2
XBUX2_458 _1240_ _1240__bF$buf4 gnd! vdd! BUX2
XBUX2_459 _1240_ _1240__bF$buf3 gnd! vdd! BUX2
XBUX2_460 _1240_ _1240__bF$buf2 gnd! vdd! BUX2
XBUX2_461 _1240_ _1240__bF$buf1 gnd! vdd! BUX2
XBUX2_462 _1240_ _1240__bF$buf0 gnd! vdd! BUX2
XBUX2_463 CTRL.cyc CTRL.cyc_bF$buf14 gnd! vdd! BUX2
XBUX2_464 CTRL.cyc CTRL.cyc_bF$buf13 gnd! vdd! BUX2
XBUX2_465 CTRL.cyc CTRL.cyc_bF$buf12 gnd! vdd! BUX2
XBUX2_466 CTRL.cyc CTRL.cyc_bF$buf11 gnd! vdd! BUX2
XBUX2_467 CTRL.cyc CTRL.cyc_bF$buf10 gnd! vdd! BUX2
XBUX2_468 CTRL.cyc CTRL.cyc_bF$buf9 gnd! vdd! BUX2
XBUX2_469 CTRL.cyc CTRL.cyc_bF$buf8 gnd! vdd! BUX2
XBUX2_470 CTRL.cyc CTRL.cyc_bF$buf7 gnd! vdd! BUX2
XBUX2_471 CTRL.cyc CTRL.cyc_bF$buf6 gnd! vdd! BUX2
XBUX2_472 CTRL.cyc CTRL.cyc_bF$buf5 gnd! vdd! BUX2
XBUX2_473 CTRL.cyc CTRL.cyc_bF$buf4 gnd! vdd! BUX2
XBUX2_474 CTRL.cyc CTRL.cyc_bF$buf3 gnd! vdd! BUX2
XBUX2_475 CTRL.cyc CTRL.cyc_bF$buf2 gnd! vdd! BUX2
XBUX2_476 CTRL.cyc CTRL.cyc_bF$buf1 gnd! vdd! BUX2
XBUX2_477 CTRL.cyc CTRL.cyc_bF$buf0 gnd! vdd! BUX2
XBUX2_478 _1525_ _1525__bF$buf4 gnd! vdd! BUX2
XBUX2_479 _1525_ _1525__bF$buf3 gnd! vdd! BUX2
XBUX2_480 _1525_ _1525__bF$buf2 gnd! vdd! BUX2
XBUX2_481 _1525_ _1525__bF$buf1 gnd! vdd! BUX2
XBUX2_482 _1525_ _1525__bF$buf0 gnd! vdd! BUX2
XBUX2_483 _1143_ _1143__bF$buf4 gnd! vdd! BUX2
XBUX2_484 _1143_ _1143__bF$buf3 gnd! vdd! BUX2
XBUX2_485 _1143_ _1143__bF$buf2 gnd! vdd! BUX2
XBUX2_486 _1143_ _1143__bF$buf1 gnd! vdd! BUX2
XBUX2_487 _1143_ _1143__bF$buf0 gnd! vdd! BUX2
XBUX2_488 _2195_ _2195__bF$buf3 gnd! vdd! BUX2
XBUX2_489 _2195_ _2195__bF$buf2 gnd! vdd! BUX2
XBUX2_490 _2195_ _2195__bF$buf1 gnd! vdd! BUX2
XBUX2_491 _2195_ _2195__bF$buf0 gnd! vdd! BUX2
XBUX2_492 _909_ _909__bF$buf4 gnd! vdd! BUX2
XBUX2_493 _909_ _909__bF$buf3 gnd! vdd! BUX2
XBUX2_494 _909_ _909__bF$buf2 gnd! vdd! BUX2
XBUX2_495 _909_ _909__bF$buf1 gnd! vdd! BUX2
XBUX2_496 _909_ _909__bF$buf0 gnd! vdd! BUX2
XBUX2_497 _471_ _471__bF$buf7 gnd! vdd! BUX2
XBUX2_498 _471_ _471__bF$buf6 gnd! vdd! BUX2
XBUX2_499 _471_ _471__bF$buf5 gnd! vdd! BUX2