* XSpice netlist created from SPICE and liberty sources by spi2xspice.py
*SPICE netlist created from BLIF module rv32_CPU_v2 by blif2BSpice
.subckt rv32_CPU_v2 a_vdd! a_gnd! a_clk a_rst a_bdo_0_ a_bdo_1_ a_bdo_2_ a_bdo_3_ a_bdo_4_ a_bdo_5_ a_bdo_6_ a_bdo_7_ a_bdo_8_ a_bdo_9_ a_bdo_10_ a_bdo_11_ a_bdo_12_ a_bdo_13_ a_bdo_14_ a_bdo_15_ a_bdo_16_ a_bdo_17_ a_bdo_18_ a_bdo_19_ a_bdo_20_ a_bdo_21_ a_bdo_22_ a_bdo_23_ a_bdo_24_ a_bdo_25_ a_bdo_26_ a_bdo_27_ a_bdo_28_ a_bdo_29_ a_bdo_30_ a_bdo_31_ a_rfRS1_0_ a_rfRS1_1_ a_rfRS1_2_ a_rfRS1_3_ a_rfRS1_4_ a_rfRS1_5_ a_rfRS1_6_ a_rfRS1_7_ a_rfRS1_8_ a_rfRS1_9_ a_rfRS1_10_ a_rfRS1_11_ a_rfRS1_12_ a_rfRS1_13_ a_rfRS1_14_ a_rfRS1_15_ a_rfRS1_16_ a_rfRS1_17_ a_rfRS1_18_ a_rfRS1_19_ a_rfRS1_20_ a_rfRS1_21_ a_rfRS1_22_ a_rfRS1_23_ a_rfRS1_24_ a_rfRS1_25_ a_rfRS1_26_ a_rfRS1_27_ a_rfRS1_28_ a_rfRS1_29_ a_rfRS1_30_ a_rfRS1_31_ a_rfRS2_0_ a_rfRS2_1_ a_rfRS2_2_ a_rfRS2_3_ a_rfRS2_4_ a_rfRS2_5_ a_rfRS2_6_ a_rfRS2_7_ a_rfRS2_8_ a_rfRS2_9_ a_rfRS2_10_ a_rfRS2_11_ a_rfRS2_12_ a_rfRS2_13_ a_rfRS2_14_ a_rfRS2_15_ a_rfRS2_16_ a_rfRS2_17_ a_rfRS2_18_ a_rfRS2_19_ a_rfRS2_20_ a_rfRS2_21_ a_rfRS2_22_ a_rfRS2_23_ a_rfRS2_24_ a_rfRS2_25_ a_rfRS2_26_ a_rfRS2_27_ a_rfRS2_28_ a_rfRS2_29_ a_rfRS2_30_ a_rfRS2_31_ a_extR_0_ a_extR_1_ a_extR_2_ a_extR_3_ a_extR_4_ a_extR_5_ a_extR_6_ a_extR_7_ a_extR_8_ a_extR_9_ a_extR_10_ a_extR_11_ a_extR_12_ a_extR_13_ a_extR_14_ a_extR_15_ a_extR_16_ a_extR_17_ a_extR_18_ a_extR_19_ a_extR_20_ a_extR_21_ a_extR_22_ a_extR_23_ a_extR_24_ a_extR_25_ a_extR_26_ a_extR_27_ a_extR_28_ a_extR_29_ a_extR_30_ a_extR_31_ a_extDone a_IRQ a_IRQnum_0_ a_IRQnum_1_ a_IRQnum_2_ a_IRQnum_3_ a_bdi_0_ a_bdi_1_ a_bdi_2_ a_bdi_3_ a_bdi_4_ a_bdi_5_ a_bdi_6_ a_bdi_7_ a_bdi_8_ a_bdi_9_ a_bdi_10_ a_bdi_11_ a_bdi_12_ a_bdi_13_ a_bdi_14_ a_bdi_15_ a_bdi_16_ a_bdi_17_ a_bdi_18_ a_bdi_19_ a_bdi_20_ a_bdi_21_ a_bdi_22_ a_bdi_23_ a_bdi_24_ a_bdi_25_ a_bdi_26_ a_bdi_27_ a_bdi_28_ a_bdi_29_ a_bdi_30_ a_bdi_31_ a_baddr_0_ a_baddr_1_ a_baddr_2_ a_baddr_3_ a_baddr_4_ a_baddr_5_ a_baddr_6_ a_baddr_7_ a_baddr_8_ a_baddr_9_ a_baddr_10_ a_baddr_11_ a_baddr_12_ a_baddr_13_ a_baddr_14_ a_baddr_15_ a_baddr_16_ a_baddr_17_ a_baddr_18_ a_baddr_19_ a_baddr_20_ a_baddr_21_ a_baddr_22_ a_baddr_23_ a_baddr_24_ a_baddr_25_ a_baddr_26_ a_baddr_27_ a_baddr_28_ a_baddr_29_ a_baddr_30_ a_baddr_31_ a_bsz_0_ a_bsz_1_ a_bwr a_rfwr a_rfrd_0_ a_rfrd_1_ a_rfrd_2_ a_rfrd_3_ a_rfrd_4_ a_rfrs1_0_ a_rfrs1_1_ a_rfrs1_2_ a_rfrs1_3_ a_rfrs1_4_ a_rfrs2_0_ a_rfrs2_1_ a_rfrs2_2_ a_rfrs2_3_ a_rfrs2_4_ a_rfD_0_ a_rfD_1_ a_rfD_2_ a_rfD_3_ a_rfD_4_ a_rfD_5_ a_rfD_6_ a_rfD_7_ a_rfD_8_ a_rfD_9_ a_rfD_10_ a_rfD_11_ a_rfD_12_ a_rfD_13_ a_rfD_14_ a_rfD_15_ a_rfD_16_ a_rfD_17_ a_rfD_18_ a_rfD_19_ a_rfD_20_ a_rfD_21_ a_rfD_22_ a_rfD_23_ a_rfD_24_ a_rfD_25_ a_rfD_26_ a_rfD_27_ a_rfD_28_ a_rfD_29_ a_rfD_30_ a_rfD_31_ a_extA_0_ a_extA_1_ a_extA_2_ a_extA_3_ a_extA_4_ a_extA_5_ a_extA_6_ a_extA_7_ a_extA_8_ a_extA_9_ a_extA_10_ a_extA_11_ a_extA_12_ a_extA_13_ a_extA_14_ a_extA_15_ a_extA_16_ a_extA_17_ a_extA_18_ a_extA_19_ a_extA_20_ a_extA_21_ a_extA_22_ a_extA_23_ a_extA_24_ a_extA_25_ a_extA_26_ a_extA_27_ a_extA_28_ a_extA_29_ a_extA_30_ a_extA_31_ a_extB_0_ a_extB_1_ a_extB_2_ a_extB_3_ a_extB_4_ a_extB_5_ a_extB_6_ a_extB_7_ a_extB_8_ a_extB_9_ a_extB_10_ a_extB_11_ a_extB_12_ a_extB_13_ a_extB_14_ a_extB_15_ a_extB_16_ a_extB_17_ a_extB_18_ a_extB_19_ a_extB_20_ a_extB_21_ a_extB_22_ a_extB_23_ a_extB_24_ a_extB_25_ a_extB_26_ a_extB_27_ a_extB_28_ a_extB_29_ a_extB_30_ a_extB_31_ a_extStart a_extFunc3_0_ a_extFunc3_1_ a_extFunc3_2_
ABUX2_1 [CTRL.cyc_bF$buf0] CTRL.cyc_bF$buf0_bF$buf3 d_lut_BUX2
ABUX2_2 [CTRL.cyc_bF$buf0] CTRL.cyc_bF$buf0_bF$buf2 d_lut_BUX2
ABUX2_3 [CTRL.cyc_bF$buf0] CTRL.cyc_bF$buf0_bF$buf1 d_lut_BUX2
ABUX2_4 [CTRL.cyc_bF$buf0] CTRL.cyc_bF$buf0_bF$buf0 d_lut_BUX2
ABUX2_5 [CTRL.cyc_bF$buf1] CTRL.cyc_bF$buf1_bF$buf3 d_lut_BUX2
ABUX2_6 [CTRL.cyc_bF$buf1] CTRL.cyc_bF$buf1_bF$buf2 d_lut_BUX2
ABUX2_7 [CTRL.cyc_bF$buf1] CTRL.cyc_bF$buf1_bF$buf1 d_lut_BUX2
ABUX2_8 [CTRL.cyc_bF$buf1] CTRL.cyc_bF$buf1_bF$buf0 d_lut_BUX2
ABUX2_9 [CTRL.cyc_bF$buf2] CTRL.cyc_bF$buf2_bF$buf3 d_lut_BUX2
ABUX2_10 [CTRL.cyc_bF$buf2] CTRL.cyc_bF$buf2_bF$buf2 d_lut_BUX2
ABUX2_11 [CTRL.cyc_bF$buf2] CTRL.cyc_bF$buf2_bF$buf1 d_lut_BUX2
ABUX2_12 [CTRL.cyc_bF$buf2] CTRL.cyc_bF$buf2_bF$buf0 d_lut_BUX2
ABUX2_13 [CTRL.cyc_bF$buf3] CTRL.cyc_bF$buf3_bF$buf3 d_lut_BUX2
ABUX2_14 [CTRL.cyc_bF$buf3] CTRL.cyc_bF$buf3_bF$buf2 d_lut_BUX2
ABUX2_15 [CTRL.cyc_bF$buf3] CTRL.cyc_bF$buf3_bF$buf1 d_lut_BUX2
ABUX2_16 [CTRL.cyc_bF$buf3] CTRL.cyc_bF$buf3_bF$buf0 d_lut_BUX2
ABUX2_17 [CTRL.cyc_bF$buf4] CTRL.cyc_bF$buf4_bF$buf3 d_lut_BUX2
ABUX2_18 [CTRL.cyc_bF$buf4] CTRL.cyc_bF$buf4_bF$buf2 d_lut_BUX2
ABUX2_19 [CTRL.cyc_bF$buf4] CTRL.cyc_bF$buf4_bF$buf1 d_lut_BUX2
ABUX2_20 [CTRL.cyc_bF$buf4] CTRL.cyc_bF$buf4_bF$buf0 d_lut_BUX2
ABUX2_21 [CTRL.cyc_bF$buf5] CTRL.cyc_bF$buf5_bF$buf3 d_lut_BUX2
ABUX2_22 [CTRL.cyc_bF$buf5] CTRL.cyc_bF$buf5_bF$buf2 d_lut_BUX2
ABUX2_23 [CTRL.cyc_bF$buf5] CTRL.cyc_bF$buf5_bF$buf1 d_lut_BUX2
ABUX2_24 [CTRL.cyc_bF$buf5] CTRL.cyc_bF$buf5_bF$buf0 d_lut_BUX2
ABUX2_25 [CTRL.cyc_bF$buf6] CTRL.cyc_bF$buf6_bF$buf3 d_lut_BUX2
ABUX2_26 [CTRL.cyc_bF$buf6] CTRL.cyc_bF$buf6_bF$buf2 d_lut_BUX2
ABUX2_27 [CTRL.cyc_bF$buf6] CTRL.cyc_bF$buf6_bF$buf1 d_lut_BUX2
ABUX2_28 [CTRL.cyc_bF$buf6] CTRL.cyc_bF$buf6_bF$buf0 d_lut_BUX2
ABUX2_29 [CTRL.cyc_bF$buf7] CTRL.cyc_bF$buf7_bF$buf3 d_lut_BUX2
ABUX2_30 [CTRL.cyc_bF$buf7] CTRL.cyc_bF$buf7_bF$buf2 d_lut_BUX2
ABUX2_31 [CTRL.cyc_bF$buf7] CTRL.cyc_bF$buf7_bF$buf1 d_lut_BUX2
ABUX2_32 [CTRL.cyc_bF$buf7] CTRL.cyc_bF$buf7_bF$buf0 d_lut_BUX2
ABUX2_33 [CTRL.cyc_bF$buf8] CTRL.cyc_bF$buf8_bF$buf3 d_lut_BUX2
ABUX2_34 [CTRL.cyc_bF$buf8] CTRL.cyc_bF$buf8_bF$buf2 d_lut_BUX2
ABUX2_35 [CTRL.cyc_bF$buf8] CTRL.cyc_bF$buf8_bF$buf1 d_lut_BUX2
ABUX2_36 [CTRL.cyc_bF$buf8] CTRL.cyc_bF$buf8_bF$buf0 d_lut_BUX2
ABUX2_37 [CTRL.cyc_bF$buf9] CTRL.cyc_bF$buf9_bF$buf3 d_lut_BUX2
ABUX2_38 [CTRL.cyc_bF$buf9] CTRL.cyc_bF$buf9_bF$buf2 d_lut_BUX2
ABUX2_39 [CTRL.cyc_bF$buf9] CTRL.cyc_bF$buf9_bF$buf1 d_lut_BUX2
ABUX2_40 [CTRL.cyc_bF$buf9] CTRL.cyc_bF$buf9_bF$buf0 d_lut_BUX2
ABUX2_41 [clk] clk_hier0_bF$buf6 d_lut_BUX2
ABUX2_42 [clk] clk_hier0_bF$buf5 d_lut_BUX2
ABUX2_43 [clk] clk_hier0_bF$buf4 d_lut_BUX2
ABUX2_44 [clk] clk_hier0_bF$buf3 d_lut_BUX2
ABUX2_45 [clk] clk_hier0_bF$buf2 d_lut_BUX2
ABUX2_46 [clk] clk_hier0_bF$buf1 d_lut_BUX2
ABUX2_47 [clk] clk_hier0_bF$buf0 d_lut_BUX2
ABUX2_48 [CTRL.cyc_bF$buf10] CTRL.cyc_bF$buf10_bF$buf3 d_lut_BUX2
ABUX2_49 [CTRL.cyc_bF$buf10] CTRL.cyc_bF$buf10_bF$buf2 d_lut_BUX2
ABUX2_50 [CTRL.cyc_bF$buf10] CTRL.cyc_bF$buf10_bF$buf1 d_lut_BUX2
ABUX2_51 [CTRL.cyc_bF$buf10] CTRL.cyc_bF$buf10_bF$buf0 d_lut_BUX2
ABUX2_52 [CTRL.cyc_bF$buf11] CTRL.cyc_bF$buf11_bF$buf3 d_lut_BUX2
ABUX2_53 [CTRL.cyc_bF$buf11] CTRL.cyc_bF$buf11_bF$buf2 d_lut_BUX2
ABUX2_54 [CTRL.cyc_bF$buf11] CTRL.cyc_bF$buf11_bF$buf1 d_lut_BUX2
ABUX2_55 [CTRL.cyc_bF$buf11] CTRL.cyc_bF$buf11_bF$buf0 d_lut_BUX2
ABUX2_56 [CTRL.cyc_bF$buf12] CTRL.cyc_bF$buf12_bF$buf3 d_lut_BUX2
ABUX2_57 [CTRL.cyc_bF$buf12] CTRL.cyc_bF$buf12_bF$buf2 d_lut_BUX2
ABUX2_58 [CTRL.cyc_bF$buf12] CTRL.cyc_bF$buf12_bF$buf1 d_lut_BUX2
ABUX2_59 [CTRL.cyc_bF$buf12] CTRL.cyc_bF$buf12_bF$buf0 d_lut_BUX2
ABUX2_60 [CTRL.cyc_bF$buf13] CTRL.cyc_bF$buf13_bF$buf3 d_lut_BUX2
ABUX2_61 [CTRL.cyc_bF$buf13] CTRL.cyc_bF$buf13_bF$buf2 d_lut_BUX2
ABUX2_62 [CTRL.cyc_bF$buf13] CTRL.cyc_bF$buf13_bF$buf1 d_lut_BUX2
ABUX2_63 [CTRL.cyc_bF$buf13] CTRL.cyc_bF$buf13_bF$buf0 d_lut_BUX2
ABUX2_64 [CTRL.cyc_bF$buf14] CTRL.cyc_bF$buf14_bF$buf3 d_lut_BUX2
ABUX2_65 [CTRL.cyc_bF$buf14] CTRL.cyc_bF$buf14_bF$buf2 d_lut_BUX2
ABUX2_66 [CTRL.cyc_bF$buf14] CTRL.cyc_bF$buf14_bF$buf1 d_lut_BUX2
ABUX2_67 [CTRL.cyc_bF$buf14] CTRL.cyc_bF$buf14_bF$buf0 d_lut_BUX2
ABUX2_68 [_3247_] _3247__bF$buf4 d_lut_BUX2
ABUX2_69 [_3247_] _3247__bF$buf3 d_lut_BUX2
ABUX2_70 [_3247_] _3247__bF$buf2 d_lut_BUX2
ABUX2_71 [_3247_] _3247__bF$buf1 d_lut_BUX2
ABUX2_72 [_3247_] _3247__bF$buf0 d_lut_BUX2
ABUX2_73 [_2650_] _2650__bF$buf7 d_lut_BUX2
ABUX2_74 [_2650_] _2650__bF$buf6 d_lut_BUX2
ABUX2_75 [_2650_] _2650__bF$buf5 d_lut_BUX2
ABUX2_76 [_2650_] _2650__bF$buf4 d_lut_BUX2
ABUX2_77 [_2650_] _2650__bF$buf3 d_lut_BUX2
ABUX2_78 [_2650_] _2650__bF$buf2 d_lut_BUX2
ABUX2_79 [_2650_] _2650__bF$buf1 d_lut_BUX2
ABUX2_80 [_2650_] _2650__bF$buf0 d_lut_BUX2
ABUX2_81 [_3244_] _3244__bF$buf4 d_lut_BUX2
ABUX2_82 [_3244_] _3244__bF$buf3 d_lut_BUX2
ABUX2_83 [_3244_] _3244__bF$buf2 d_lut_BUX2
ABUX2_84 [_3244_] _3244__bF$buf1 d_lut_BUX2
ABUX2_85 [_3244_] _3244__bF$buf0 d_lut_BUX2
ABUX2_86 [EXT.type] EXT.type_bF$buf6 d_lut_BUX2
ABUX2_87 [EXT.type] EXT.type_bF$buf5 d_lut_BUX2
ABUX2_88 [EXT.type] EXT.type_bF$buf4 d_lut_BUX2
ABUX2_89 [EXT.type] EXT.type_bF$buf3 d_lut_BUX2
ABUX2_90 [EXT.type] EXT.type_bF$buf2 d_lut_BUX2
ABUX2_91 [EXT.type] EXT.type_bF$buf1 d_lut_BUX2
ABUX2_92 [EXT.type] EXT.type_bF$buf0 d_lut_BUX2
ABUX2_93 [_2647_] _2647__bF$buf4 d_lut_BUX2
ABUX2_94 [_2647_] _2647__bF$buf3 d_lut_BUX2
ABUX2_95 [_2647_] _2647__bF$buf2 d_lut_BUX2
ABUX2_96 [_2647_] _2647__bF$buf1 d_lut_BUX2
ABUX2_97 [_2647_] _2647__bF$buf0 d_lut_BUX2
ABUX2_98 [CTRL.cu_ext_hold] CTRL.cu_ext_hold_bF$buf6 d_lut_BUX2
ABUX2_99 [CTRL.cu_ext_hold] CTRL.cu_ext_hold_bF$buf5 d_lut_BUX2
ABUX2_100 [CTRL.cu_ext_hold] CTRL.cu_ext_hold_bF$buf4 d_lut_BUX2
ABUX2_101 [CTRL.cu_ext_hold] CTRL.cu_ext_hold_bF$buf3 d_lut_BUX2
ABUX2_102 [CTRL.cu_ext_hold] CTRL.cu_ext_hold_bF$buf2 d_lut_BUX2
ABUX2_103 [CTRL.cu_ext_hold] CTRL.cu_ext_hold_bF$buf1 d_lut_BUX2
ABUX2_104 [CTRL.cu_ext_hold] CTRL.cu_ext_hold_bF$buf0 d_lut_BUX2
ABUX2_105 [CTRL.IDEC1.cu_custom_inst] CTRL.IDEC1.cu_custom_inst_bF$buf5 d_lut_BUX2
ABUX2_106 [CTRL.IDEC1.cu_custom_inst] CTRL.IDEC1.cu_custom_inst_bF$buf4 d_lut_BUX2
ABUX2_107 [CTRL.IDEC1.cu_custom_inst] CTRL.IDEC1.cu_custom_inst_bF$buf3 d_lut_BUX2
ABUX2_108 [CTRL.IDEC1.cu_custom_inst] CTRL.IDEC1.cu_custom_inst_bF$buf2 d_lut_BUX2
ABUX2_109 [CTRL.IDEC1.cu_custom_inst] CTRL.IDEC1.cu_custom_inst_bF$buf1 d_lut_BUX2
ABUX2_110 [CTRL.IDEC1.cu_custom_inst] CTRL.IDEC1.cu_custom_inst_bF$buf0 d_lut_BUX2
ABUX2_111 [_682__0_] _682__0_bF$buf3 d_lut_BUX2
ABUX2_112 [_682__0_] _682__0_bF$buf2 d_lut_BUX2
ABUX2_113 [_682__0_] _682__0_bF$buf1 d_lut_BUX2
ABUX2_114 [_682__0_] _682__0_bF$buf0 d_lut_BUX2
ABUX2_115 [_1242_] _1242__bF$buf4 d_lut_BUX2
ABUX2_116 [_1242_] _1242__bF$buf3 d_lut_BUX2
ABUX2_117 [_1242_] _1242__bF$buf2 d_lut_BUX2
ABUX2_118 [_1242_] _1242__bF$buf1 d_lut_BUX2
ABUX2_119 [_1242_] _1242__bF$buf0 d_lut_BUX2
ABUX2_120 [CTRL.cu_r2_src] CTRL.cu_r2_src_bF$buf5 d_lut_BUX2
ABUX2_121 [CTRL.cu_r2_src] CTRL.cu_r2_src_bF$buf4 d_lut_BUX2
ABUX2_122 [CTRL.cu_r2_src] CTRL.cu_r2_src_bF$buf3 d_lut_BUX2
ABUX2_123 [CTRL.cu_r2_src] CTRL.cu_r2_src_bF$buf2 d_lut_BUX2
ABUX2_124 [CTRL.cu_r2_src] CTRL.cu_r2_src_bF$buf1 d_lut_BUX2
ABUX2_125 [CTRL.cu_r2_src] CTRL.cu_r2_src_bF$buf0 d_lut_BUX2
ABUX2_126 [_476_] _476__bF$buf4 d_lut_BUX2
ABUX2_127 [_476_] _476__bF$buf3 d_lut_BUX2
ABUX2_128 [_476_] _476__bF$buf2 d_lut_BUX2
ABUX2_129 [_476_] _476__bF$buf1 d_lut_BUX2
ABUX2_130 [_476_] _476__bF$buf0 d_lut_BUX2
ABUX2_131 [_1048_] _1048__bF$buf4 d_lut_BUX2
ABUX2_132 [_1048_] _1048__bF$buf3 d_lut_BUX2
ABUX2_133 [_1048_] _1048__bF$buf2 d_lut_BUX2
ABUX2_134 [_1048_] _1048__bF$buf1 d_lut_BUX2
ABUX2_135 [_1048_] _1048__bF$buf0 d_lut_BUX2
ABUX2_136 [CTRL.IDEC1.cu_load_inst] CTRL.IDEC1.cu_load_inst_bF$buf4 d_lut_BUX2
ABUX2_137 [CTRL.IDEC1.cu_load_inst] CTRL.IDEC1.cu_load_inst_bF$buf3 d_lut_BUX2
ABUX2_138 [CTRL.IDEC1.cu_load_inst] CTRL.IDEC1.cu_load_inst_bF$buf2 d_lut_BUX2
ABUX2_139 [CTRL.IDEC1.cu_load_inst] CTRL.IDEC1.cu_load_inst_bF$buf1 d_lut_BUX2
ABUX2_140 [CTRL.IDEC1.cu_load_inst] CTRL.IDEC1.cu_load_inst_bF$buf0 d_lut_BUX2
ABUX2_141 [_39_] _39__bF$buf4 d_lut_BUX2
ABUX2_142 [_39_] _39__bF$buf3 d_lut_BUX2
ABUX2_143 [_39_] _39__bF$buf2 d_lut_BUX2
ABUX2_144 [_39_] _39__bF$buf1 d_lut_BUX2
ABUX2_145 [_39_] _39__bF$buf0 d_lut_BUX2
ABUX2_146 [_952_] _952__bF$buf5 d_lut_BUX2
ABUX2_147 [_952_] _952__bF$buf4 d_lut_BUX2
ABUX2_148 [_952_] _952__bF$buf3 d_lut_BUX2
ABUX2_149 [_952_] _952__bF$buf2 d_lut_BUX2
ABUX2_150 [_952_] _952__bF$buf1 d_lut_BUX2
ABUX2_151 [_952_] _952__bF$buf0 d_lut_BUX2
ABUX2_152 [clk_hier0_bF$buf6] clk_bF$buf53 d_lut_BUX2
ABUX2_153 [clk_hier0_bF$buf5] clk_bF$buf52 d_lut_BUX2
ABUX2_154 [clk_hier0_bF$buf4] clk_bF$buf51 d_lut_BUX2
ABUX2_155 [clk_hier0_bF$buf3] clk_bF$buf50 d_lut_BUX2
ABUX2_156 [clk_hier0_bF$buf2] clk_bF$buf49 d_lut_BUX2
ABUX2_157 [clk_hier0_bF$buf1] clk_bF$buf48 d_lut_BUX2
ABUX2_158 [clk_hier0_bF$buf0] clk_bF$buf47 d_lut_BUX2
ABUX2_159 [clk_hier0_bF$buf6] clk_bF$buf46 d_lut_BUX2
ABUX2_160 [clk_hier0_bF$buf5] clk_bF$buf45 d_lut_BUX2
ABUX2_161 [clk_hier0_bF$buf4] clk_bF$buf44 d_lut_BUX2
ABUX2_162 [clk_hier0_bF$buf3] clk_bF$buf43 d_lut_BUX2
ABUX2_163 [clk_hier0_bF$buf2] clk_bF$buf42 d_lut_BUX2
ABUX2_164 [clk_hier0_bF$buf1] clk_bF$buf41 d_lut_BUX2
ABUX2_165 [clk_hier0_bF$buf0] clk_bF$buf40 d_lut_BUX2
ABUX2_166 [clk_hier0_bF$buf6] clk_bF$buf39 d_lut_BUX2
ABUX2_167 [clk_hier0_bF$buf5] clk_bF$buf38 d_lut_BUX2
ABUX2_168 [clk_hier0_bF$buf4] clk_bF$buf37 d_lut_BUX2
ABUX2_169 [clk_hier0_bF$buf3] clk_bF$buf36 d_lut_BUX2
ABUX2_170 [clk_hier0_bF$buf2] clk_bF$buf35 d_lut_BUX2
ABUX2_171 [clk_hier0_bF$buf1] clk_bF$buf34 d_lut_BUX2
ABUX2_172 [clk_hier0_bF$buf0] clk_bF$buf33 d_lut_BUX2
ABUX2_173 [clk_hier0_bF$buf6] clk_bF$buf32 d_lut_BUX2
ABUX2_174 [clk_hier0_bF$buf5] clk_bF$buf31 d_lut_BUX2
ABUX2_175 [clk_hier0_bF$buf4] clk_bF$buf30 d_lut_BUX2
ABUX2_176 [clk_hier0_bF$buf3] clk_bF$buf29 d_lut_BUX2
ABUX2_177 [clk_hier0_bF$buf2] clk_bF$buf28 d_lut_BUX2
ABUX2_178 [clk_hier0_bF$buf1] clk_bF$buf27 d_lut_BUX2
ABUX2_179 [clk_hier0_bF$buf0] clk_bF$buf26 d_lut_BUX2
ABUX2_180 [clk_hier0_bF$buf6] clk_bF$buf25 d_lut_BUX2
ABUX2_181 [clk_hier0_bF$buf5] clk_bF$buf24 d_lut_BUX2
ABUX2_182 [clk_hier0_bF$buf4] clk_bF$buf23 d_lut_BUX2
ABUX2_183 [clk_hier0_bF$buf3] clk_bF$buf22 d_lut_BUX2
ABUX2_184 [clk_hier0_bF$buf2] clk_bF$buf21 d_lut_BUX2
ABUX2_185 [clk_hier0_bF$buf1] clk_bF$buf20 d_lut_BUX2
ABUX2_186 [clk_hier0_bF$buf0] clk_bF$buf19 d_lut_BUX2
ABUX2_187 [clk_hier0_bF$buf6] clk_bF$buf18 d_lut_BUX2
ABUX2_188 [clk_hier0_bF$buf5] clk_bF$buf17 d_lut_BUX2
ABUX2_189 [clk_hier0_bF$buf4] clk_bF$buf16 d_lut_BUX2
ABUX2_190 [clk_hier0_bF$buf3] clk_bF$buf15 d_lut_BUX2
ABUX2_191 [clk_hier0_bF$buf2] clk_bF$buf14 d_lut_BUX2
ABUX2_192 [clk_hier0_bF$buf1] clk_bF$buf13 d_lut_BUX2
ABUX2_193 [clk_hier0_bF$buf0] clk_bF$buf12 d_lut_BUX2
ABUX2_194 [clk_hier0_bF$buf6] clk_bF$buf11 d_lut_BUX2
ABUX2_195 [clk_hier0_bF$buf5] clk_bF$buf10 d_lut_BUX2
ABUX2_196 [clk_hier0_bF$buf4] clk_bF$buf9 d_lut_BUX2
ABUX2_197 [clk_hier0_bF$buf3] clk_bF$buf8 d_lut_BUX2
ABUX2_198 [clk_hier0_bF$buf2] clk_bF$buf7 d_lut_BUX2
ABUX2_199 [clk_hier0_bF$buf1] clk_bF$buf6 d_lut_BUX2
ABUX2_200 [clk_hier0_bF$buf0] clk_bF$buf5 d_lut_BUX2
ABUX2_201 [clk_hier0_bF$buf6] clk_bF$buf4 d_lut_BUX2
ABUX2_202 [clk_hier0_bF$buf5] clk_bF$buf3 d_lut_BUX2
ABUX2_203 [clk_hier0_bF$buf4] clk_bF$buf2 d_lut_BUX2
ABUX2_204 [clk_hier0_bF$buf3] clk_bF$buf1 d_lut_BUX2
ABUX2_205 [clk_hier0_bF$buf2] clk_bF$buf0 d_lut_BUX2
ABUX2_206 [_1524_] _1524__bF$buf3 d_lut_BUX2
ABUX2_207 [_1524_] _1524__bF$buf2 d_lut_BUX2
ABUX2_208 [_1524_] _1524__bF$buf1 d_lut_BUX2
ABUX2_209 [_1524_] _1524__bF$buf0 d_lut_BUX2
ABUX2_210 [_473_] _473__bF$buf5 d_lut_BUX2
ABUX2_211 [_473_] _473__bF$buf4 d_lut_BUX2
ABUX2_212 [_473_] _473__bF$buf3 d_lut_BUX2
ABUX2_213 [_473_] _473__bF$buf2 d_lut_BUX2
ABUX2_214 [_473_] _473__bF$buf1 d_lut_BUX2
ABUX2_215 [_473_] _473__bF$buf0 d_lut_BUX2
ABUX2_216 [CNTR.ld_cycle] CNTR.ld_cycle_bF$buf6 d_lut_BUX2
ABUX2_217 [CNTR.ld_cycle] CNTR.ld_cycle_bF$buf5 d_lut_BUX2
ABUX2_218 [CNTR.ld_cycle] CNTR.ld_cycle_bF$buf4 d_lut_BUX2
ABUX2_219 [CNTR.ld_cycle] CNTR.ld_cycle_bF$buf3 d_lut_BUX2
ABUX2_220 [CNTR.ld_cycle] CNTR.ld_cycle_bF$buf2 d_lut_BUX2
ABUX2_221 [CNTR.ld_cycle] CNTR.ld_cycle_bF$buf1 d_lut_BUX2
ABUX2_222 [CNTR.ld_cycle] CNTR.ld_cycle_bF$buf0 d_lut_BUX2
ABUX2_223 [_36_] _36__bF$buf3 d_lut_BUX2
ABUX2_224 [_36_] _36__bF$buf2 d_lut_BUX2
ABUX2_225 [_36_] _36__bF$buf1 d_lut_BUX2
ABUX2_226 [_36_] _36__bF$buf0 d_lut_BUX2
ABUX2_227 [_1233_] _1233__bF$buf4 d_lut_BUX2
ABUX2_228 [_1233_] _1233__bF$buf3 d_lut_BUX2
ABUX2_229 [_1233_] _1233__bF$buf2 d_lut_BUX2
ABUX2_230 [_1233_] _1233__bF$buf1 d_lut_BUX2
ABUX2_231 [_1233_] _1233__bF$buf0 d_lut_BUX2
ABUX2_232 [_1230_] _1230__bF$buf5 d_lut_BUX2
ABUX2_233 [_1230_] _1230__bF$buf4 d_lut_BUX2
ABUX2_234 [_1230_] _1230__bF$buf3 d_lut_BUX2
ABUX2_235 [_1230_] _1230__bF$buf2 d_lut_BUX2
ABUX2_236 [_1230_] _1230__bF$buf1 d_lut_BUX2
ABUX2_237 [_1230_] _1230__bF$buf0 d_lut_BUX2
ABUX2_238 [_1227_] _1227__bF$buf6 d_lut_BUX2
ABUX2_239 [_1227_] _1227__bF$buf5 d_lut_BUX2
ABUX2_240 [_1227_] _1227__bF$buf4 d_lut_BUX2
ABUX2_241 [_1227_] _1227__bF$buf3 d_lut_BUX2
ABUX2_242 [_1227_] _1227__bF$buf2 d_lut_BUX2
ABUX2_243 [_1227_] _1227__bF$buf1 d_lut_BUX2
ABUX2_244 [_1227_] _1227__bF$buf0 d_lut_BUX2
ABUX2_245 [_3117_] _3117__bF$buf7 d_lut_BUX2
ABUX2_246 [_3117_] _3117__bF$buf6 d_lut_BUX2
ABUX2_247 [_3117_] _3117__bF$buf5 d_lut_BUX2
ABUX2_248 [_3117_] _3117__bF$buf4 d_lut_BUX2
ABUX2_249 [_3117_] _3117__bF$buf3 d_lut_BUX2
ABUX2_250 [_3117_] _3117__bF$buf2 d_lut_BUX2
ABUX2_251 [_3117_] _3117__bF$buf1 d_lut_BUX2
ABUX2_252 [_3117_] _3117__bF$buf0 d_lut_BUX2
ABUX2_253 [_1221_] _1221__bF$buf4 d_lut_BUX2
ABUX2_254 [_1221_] _1221__bF$buf3 d_lut_BUX2
ABUX2_255 [_1221_] _1221__bF$buf2 d_lut_BUX2
ABUX2_256 [_1221_] _1221__bF$buf1 d_lut_BUX2
ABUX2_257 [_1221_] _1221__bF$buf0 d_lut_BUX2
ABUX2_258 [_2329_] _2329__bF$buf4 d_lut_BUX2
ABUX2_259 [_2329_] _2329__bF$buf3 d_lut_BUX2
ABUX2_260 [_2329_] _2329__bF$buf2 d_lut_BUX2
ABUX2_261 [_2329_] _2329__bF$buf1 d_lut_BUX2
ABUX2_262 [_2329_] _2329__bF$buf0 d_lut_BUX2
ABUX2_263 [_2367_] _2367__bF$buf4 d_lut_BUX2
ABUX2_264 [_2367_] _2367__bF$buf3 d_lut_BUX2
ABUX2_265 [_2367_] _2367__bF$buf2 d_lut_BUX2
ABUX2_266 [_2367_] _2367__bF$buf1 d_lut_BUX2
ABUX2_267 [_2367_] _2367__bF$buf0 d_lut_BUX2
ABUX2_268 [_21_] _21__bF$buf7 d_lut_BUX2
ABUX2_269 [_21_] _21__bF$buf6 d_lut_BUX2
ABUX2_270 [_21_] _21__bF$buf5 d_lut_BUX2
ABUX2_271 [_21_] _21__bF$buf4 d_lut_BUX2
ABUX2_272 [_21_] _21__bF$buf3 d_lut_BUX2
ABUX2_273 [_21_] _21__bF$buf2 d_lut_BUX2
ABUX2_274 [_21_] _21__bF$buf1 d_lut_BUX2
ABUX2_275 [_21_] _21__bF$buf0 d_lut_BUX2
ABUX2_276 [CTRL.cu_r1_src] CTRL.cu_r1_src_bF$buf3 d_lut_BUX2
ABUX2_277 [CTRL.cu_r1_src] CTRL.cu_r1_src_bF$buf2 d_lut_BUX2
ABUX2_278 [CTRL.cu_r1_src] CTRL.cu_r1_src_bF$buf1 d_lut_BUX2
ABUX2_279 [CTRL.cu_r1_src] CTRL.cu_r1_src_bF$buf0 d_lut_BUX2
ABUX2_280 [CTRL.IDEC1.cu_system_inst] CTRL.IDEC1.cu_system_inst_bF$buf7 d_lut_BUX2
ABUX2_281 [CTRL.IDEC1.cu_system_inst] CTRL.IDEC1.cu_system_inst_bF$buf6 d_lut_BUX2
ABUX2_282 [CTRL.IDEC1.cu_system_inst] CTRL.IDEC1.cu_system_inst_bF$buf5 d_lut_BUX2
ABUX2_283 [CTRL.IDEC1.cu_system_inst] CTRL.IDEC1.cu_system_inst_bF$buf4 d_lut_BUX2
ABUX2_284 [CTRL.IDEC1.cu_system_inst] CTRL.IDEC1.cu_system_inst_bF$buf3 d_lut_BUX2
ABUX2_285 [CTRL.IDEC1.cu_system_inst] CTRL.IDEC1.cu_system_inst_bF$buf2 d_lut_BUX2
ABUX2_286 [CTRL.IDEC1.cu_system_inst] CTRL.IDEC1.cu_system_inst_bF$buf1 d_lut_BUX2
ABUX2_287 [CTRL.IDEC1.cu_system_inst] CTRL.IDEC1.cu_system_inst_bF$buf0 d_lut_BUX2
ABUX2_288 [_931_] _931__bF$buf5 d_lut_BUX2
ABUX2_289 [_931_] _931__bF$buf4 d_lut_BUX2
ABUX2_290 [_931_] _931__bF$buf3 d_lut_BUX2
ABUX2_291 [_931_] _931__bF$buf2 d_lut_BUX2
ABUX2_292 [_931_] _931__bF$buf1 d_lut_BUX2
ABUX2_293 [_931_] _931__bF$buf0 d_lut_BUX2
ABUX2_294 [CTRL.cu_alu_b_src] CTRL.cu_alu_b_src_bF$buf4 d_lut_BUX2
ABUX2_295 [CTRL.cu_alu_b_src] CTRL.cu_alu_b_src_bF$buf3 d_lut_BUX2
ABUX2_296 [CTRL.cu_alu_b_src] CTRL.cu_alu_b_src_bF$buf2 d_lut_BUX2
ABUX2_297 [CTRL.cu_alu_b_src] CTRL.cu_alu_b_src_bF$buf1 d_lut_BUX2
ABUX2_298 [CTRL.cu_alu_b_src] CTRL.cu_alu_b_src_bF$buf0 d_lut_BUX2
ABUX2_299 [_3246_] _3246__bF$buf4 d_lut_BUX2
ABUX2_300 [_3246_] _3246__bF$buf3 d_lut_BUX2
ABUX2_301 [_3246_] _3246__bF$buf2 d_lut_BUX2
ABUX2_302 [_3246_] _3246__bF$buf1 d_lut_BUX2
ABUX2_303 [_3246_] _3246__bF$buf0 d_lut_BUX2
ABUX2_304 [_2458_] _2458__bF$buf5 d_lut_BUX2
ABUX2_305 [_2458_] _2458__bF$buf4 d_lut_BUX2
ABUX2_306 [_2458_] _2458__bF$buf3 d_lut_BUX2
ABUX2_307 [_2458_] _2458__bF$buf2 d_lut_BUX2
ABUX2_308 [_2458_] _2458__bF$buf1 d_lut_BUX2
ABUX2_309 [_2458_] _2458__bF$buf0 d_lut_BUX2
ABUX2_310 [_1059_] _1059__bF$buf3 d_lut_BUX2
ABUX2_311 [_1059_] _1059__bF$buf2 d_lut_BUX2
ABUX2_312 [_1059_] _1059__bF$buf1 d_lut_BUX2
ABUX2_313 [_1059_] _1059__bF$buf0 d_lut_BUX2
ABUX2_314 [_1212_] _1212__bF$buf4 d_lut_BUX2
ABUX2_315 [_1212_] _1212__bF$buf3 d_lut_BUX2
ABUX2_316 [_1212_] _1212__bF$buf2 d_lut_BUX2
ABUX2_317 [_1212_] _1212__bF$buf1 d_lut_BUX2
ABUX2_318 [_1212_] _1212__bF$buf0 d_lut_BUX2
ABUX2_319 [_2646_] _2646__bF$buf3 d_lut_BUX2
ABUX2_320 [_2646_] _2646__bF$buf2 d_lut_BUX2
ABUX2_321 [_2646_] _2646__bF$buf1 d_lut_BUX2
ABUX2_322 [_2646_] _2646__bF$buf0 d_lut_BUX2
ABUX2_323 [_866_] _866__bF$buf5 d_lut_BUX2
ABUX2_324 [_866_] _866__bF$buf4 d_lut_BUX2
ABUX2_325 [_866_] _866__bF$buf3 d_lut_BUX2
ABUX2_326 [_866_] _866__bF$buf2 d_lut_BUX2
ABUX2_327 [_866_] _866__bF$buf1 d_lut_BUX2
ABUX2_328 [_866_] _866__bF$buf0 d_lut_BUX2
ABUX2_329 [_2643_] _2643__bF$buf5 d_lut_BUX2
ABUX2_330 [_2643_] _2643__bF$buf4 d_lut_BUX2
ABUX2_331 [_2643_] _2643__bF$buf3 d_lut_BUX2
ABUX2_332 [_2643_] _2643__bF$buf2 d_lut_BUX2
ABUX2_333 [_2643_] _2643__bF$buf1 d_lut_BUX2
ABUX2_334 [_2643_] _2643__bF$buf0 d_lut_BUX2
ABUX2_335 [CTRL.IDEC1.cu_auipc_inst] CTRL.IDEC1.cu_auipc_inst_bF$buf4 d_lut_BUX2
ABUX2_336 [CTRL.IDEC1.cu_auipc_inst] CTRL.IDEC1.cu_auipc_inst_bF$buf3 d_lut_BUX2
ABUX2_337 [CTRL.IDEC1.cu_auipc_inst] CTRL.IDEC1.cu_auipc_inst_bF$buf2 d_lut_BUX2
ABUX2_338 [CTRL.IDEC1.cu_auipc_inst] CTRL.IDEC1.cu_auipc_inst_bF$buf1 d_lut_BUX2
ABUX2_339 [CTRL.IDEC1.cu_auipc_inst] CTRL.IDEC1.cu_auipc_inst_bF$buf0 d_lut_BUX2
ABUX2_340 [CTRL.cu_csr_rd_s1] CTRL.cu_csr_rd_s1_bF$buf7 d_lut_BUX2
ABUX2_341 [CTRL.cu_csr_rd_s1] CTRL.cu_csr_rd_s1_bF$buf6 d_lut_BUX2
ABUX2_342 [CTRL.cu_csr_rd_s1] CTRL.cu_csr_rd_s1_bF$buf5 d_lut_BUX2
ABUX2_343 [CTRL.cu_csr_rd_s1] CTRL.cu_csr_rd_s1_bF$buf4 d_lut_BUX2
ABUX2_344 [CTRL.cu_csr_rd_s1] CTRL.cu_csr_rd_s1_bF$buf3 d_lut_BUX2
ABUX2_345 [CTRL.cu_csr_rd_s1] CTRL.cu_csr_rd_s1_bF$buf2 d_lut_BUX2
ABUX2_346 [CTRL.cu_csr_rd_s1] CTRL.cu_csr_rd_s1_bF$buf1 d_lut_BUX2
ABUX2_347 [CTRL.cu_csr_rd_s1] CTRL.cu_csr_rd_s1_bF$buf0 d_lut_BUX2
ABUX2_348 [_1203_] _1203__bF$buf4 d_lut_BUX2
ABUX2_349 [_1203_] _1203__bF$buf3 d_lut_BUX2
ABUX2_350 [_1203_] _1203__bF$buf2 d_lut_BUX2
ABUX2_351 [_1203_] _1203__bF$buf1 d_lut_BUX2
ABUX2_352 [_1203_] _1203__bF$buf0 d_lut_BUX2
ABUX2_353 [_1526_] _1526__bF$buf4 d_lut_BUX2
ABUX2_354 [_1526_] _1526__bF$buf3 d_lut_BUX2
ABUX2_355 [_1526_] _1526__bF$buf2 d_lut_BUX2
ABUX2_356 [_1526_] _1526__bF$buf1 d_lut_BUX2
ABUX2_357 [_1526_] _1526__bF$buf0 d_lut_BUX2
ABUX2_358 [_434_] _434__bF$buf3 d_lut_BUX2
ABUX2_359 [_434_] _434__bF$buf2 d_lut_BUX2
ABUX2_360 [_434_] _434__bF$buf1 d_lut_BUX2
ABUX2_361 [_434_] _434__bF$buf0 d_lut_BUX2
ABUX2_362 [_1235_] _1235__bF$buf4 d_lut_BUX2
ABUX2_363 [_1235_] _1235__bF$buf3 d_lut_BUX2
ABUX2_364 [_1235_] _1235__bF$buf2 d_lut_BUX2
ABUX2_365 [_1235_] _1235__bF$buf1 d_lut_BUX2
ABUX2_366 [_1235_] _1235__bF$buf0 d_lut_BUX2
ABUX2_367 [_1329_] _1329__bF$buf4 d_lut_BUX2
ABUX2_368 [_1329_] _1329__bF$buf3 d_lut_BUX2
ABUX2_369 [_1329_] _1329__bF$buf2 d_lut_BUX2
ABUX2_370 [_1329_] _1329__bF$buf1 d_lut_BUX2
ABUX2_371 [_1329_] _1329__bF$buf0 d_lut_BUX2
ABUX2_372 [_32_] _32__bF$buf4 d_lut_BUX2
ABUX2_373 [_32_] _32__bF$buf3 d_lut_BUX2
ABUX2_374 [_32_] _32__bF$buf2 d_lut_BUX2
ABUX2_375 [_32_] _32__bF$buf1 d_lut_BUX2
ABUX2_376 [_32_] _32__bF$buf0 d_lut_BUX2
ABUX2_377 [_29_] _29__bF$buf6 d_lut_BUX2
ABUX2_378 [_29_] _29__bF$buf5 d_lut_BUX2
ABUX2_379 [_29_] _29__bF$buf4 d_lut_BUX2
ABUX2_380 [_29_] _29__bF$buf3 d_lut_BUX2
ABUX2_381 [_29_] _29__bF$buf2 d_lut_BUX2
ABUX2_382 [_29_] _29__bF$buf1 d_lut_BUX2
ABUX2_383 [_29_] _29__bF$buf0 d_lut_BUX2
ABUX2_384 [_2243_] _2243__bF$buf7 d_lut_BUX2
ABUX2_385 [_2243_] _2243__bF$buf6 d_lut_BUX2
ABUX2_386 [_2243_] _2243__bF$buf5 d_lut_BUX2
ABUX2_387 [_2243_] _2243__bF$buf4 d_lut_BUX2
ABUX2_388 [_2243_] _2243__bF$buf3 d_lut_BUX2
ABUX2_389 [_2243_] _2243__bF$buf2 d_lut_BUX2
ABUX2_390 [_2243_] _2243__bF$buf1 d_lut_BUX2
ABUX2_391 [_2243_] _2243__bF$buf0 d_lut_BUX2
ABUX2_392 [CNTR.ld_timer] CNTR.ld_timer_bF$buf4 d_lut_BUX2
ABUX2_393 [CNTR.ld_timer] CNTR.ld_timer_bF$buf3 d_lut_BUX2
ABUX2_394 [CNTR.ld_timer] CNTR.ld_timer_bF$buf2 d_lut_BUX2
ABUX2_395 [CNTR.ld_timer] CNTR.ld_timer_bF$buf1 d_lut_BUX2
ABUX2_396 [CNTR.ld_timer] CNTR.ld_timer_bF$buf0 d_lut_BUX2
ABUX2_397 [_1226_] _1226__bF$buf6 d_lut_BUX2
ABUX2_398 [_1226_] _1226__bF$buf5 d_lut_BUX2
ABUX2_399 [_1226_] _1226__bF$buf4 d_lut_BUX2
ABUX2_400 [_1226_] _1226__bF$buf3 d_lut_BUX2
ABUX2_401 [_1226_] _1226__bF$buf2 d_lut_BUX2
ABUX2_402 [_1226_] _1226__bF$buf1 d_lut_BUX2
ABUX2_403 [_1226_] _1226__bF$buf0 d_lut_BUX2
ABUX2_404 [_595_] _595__bF$buf4 d_lut_BUX2
ABUX2_405 [_595_] _595__bF$buf3 d_lut_BUX2
ABUX2_406 [_595_] _595__bF$buf2 d_lut_BUX2
ABUX2_407 [_595_] _595__bF$buf1 d_lut_BUX2
ABUX2_408 [_595_] _595__bF$buf0 d_lut_BUX2
ABUX2_409 [_23_] _23__bF$buf6 d_lut_BUX2
ABUX2_410 [_23_] _23__bF$buf5 d_lut_BUX2
ABUX2_411 [_23_] _23__bF$buf4 d_lut_BUX2
ABUX2_412 [_23_] _23__bF$buf3 d_lut_BUX2
ABUX2_413 [_23_] _23__bF$buf2 d_lut_BUX2
ABUX2_414 [_23_] _23__bF$buf1 d_lut_BUX2
ABUX2_415 [_23_] _23__bF$buf0 d_lut_BUX2
ABUX2_416 [CTRL.IDEC1.cu_jalr_inst] CTRL.IDEC1.cu_jalr_inst_bF$buf5 d_lut_BUX2
ABUX2_417 [CTRL.IDEC1.cu_jalr_inst] CTRL.IDEC1.cu_jalr_inst_bF$buf4 d_lut_BUX2
ABUX2_418 [CTRL.IDEC1.cu_jalr_inst] CTRL.IDEC1.cu_jalr_inst_bF$buf3 d_lut_BUX2
ABUX2_419 [CTRL.IDEC1.cu_jalr_inst] CTRL.IDEC1.cu_jalr_inst_bF$buf2 d_lut_BUX2
ABUX2_420 [CTRL.IDEC1.cu_jalr_inst] CTRL.IDEC1.cu_jalr_inst_bF$buf1 d_lut_BUX2
ABUX2_421 [CTRL.IDEC1.cu_jalr_inst] CTRL.IDEC1.cu_jalr_inst_bF$buf0 d_lut_BUX2
ABUX2_422 [_1252_] _1252__bF$buf5 d_lut_BUX2
ABUX2_423 [_1252_] _1252__bF$buf4 d_lut_BUX2
ABUX2_424 [_1252_] _1252__bF$buf3 d_lut_BUX2
ABUX2_425 [_1252_] _1252__bF$buf2 d_lut_BUX2
ABUX2_426 [_1252_] _1252__bF$buf1 d_lut_BUX2
ABUX2_427 [_1252_] _1252__bF$buf0 d_lut_BUX2
ABUX2_428 [_2686_] _2686__bF$buf3 d_lut_BUX2
ABUX2_429 [_2686_] _2686__bF$buf2 d_lut_BUX2
ABUX2_430 [_2686_] _2686__bF$buf1 d_lut_BUX2
ABUX2_431 [_2686_] _2686__bF$buf0 d_lut_BUX2
ABUX2_432 [CTRL.cu_pc_s2] CTRL.cu_pc_s2_bF$buf7 d_lut_BUX2
ABUX2_433 [CTRL.cu_pc_s2] CTRL.cu_pc_s2_bF$buf6 d_lut_BUX2
ABUX2_434 [CTRL.cu_pc_s2] CTRL.cu_pc_s2_bF$buf5 d_lut_BUX2
ABUX2_435 [CTRL.cu_pc_s2] CTRL.cu_pc_s2_bF$buf4 d_lut_BUX2
ABUX2_436 [CTRL.cu_pc_s2] CTRL.cu_pc_s2_bF$buf3 d_lut_BUX2
ABUX2_437 [CTRL.cu_pc_s2] CTRL.cu_pc_s2_bF$buf2 d_lut_BUX2
ABUX2_438 [CTRL.cu_pc_s2] CTRL.cu_pc_s2_bF$buf1 d_lut_BUX2
ABUX2_439 [CTRL.cu_pc_s2] CTRL.cu_pc_s2_bF$buf0 d_lut_BUX2
ABUX2_440 [CTRL.cu_pc_s3] CTRL.cu_pc_s3_bF$buf4 d_lut_BUX2
ABUX2_441 [CTRL.cu_pc_s3] CTRL.cu_pc_s3_bF$buf3 d_lut_BUX2
ABUX2_442 [CTRL.cu_pc_s3] CTRL.cu_pc_s3_bF$buf2 d_lut_BUX2
ABUX2_443 [CTRL.cu_pc_s3] CTRL.cu_pc_s3_bF$buf1 d_lut_BUX2
ABUX2_444 [CTRL.cu_pc_s3] CTRL.cu_pc_s3_bF$buf0 d_lut_BUX2
ABUX2_445 [CTRL.cu_pc_s4] CTRL.cu_pc_s4_bF$buf5 d_lut_BUX2
ABUX2_446 [CTRL.cu_pc_s4] CTRL.cu_pc_s4_bF$buf4 d_lut_BUX2
ABUX2_447 [CTRL.cu_pc_s4] CTRL.cu_pc_s4_bF$buf3 d_lut_BUX2
ABUX2_448 [CTRL.cu_pc_s4] CTRL.cu_pc_s4_bF$buf2 d_lut_BUX2
ABUX2_449 [CTRL.cu_pc_s4] CTRL.cu_pc_s4_bF$buf1 d_lut_BUX2
ABUX2_450 [CTRL.cu_pc_s4] CTRL.cu_pc_s4_bF$buf0 d_lut_BUX2
ABUX2_451 [_682__1_] _682__1_bF$buf4 d_lut_BUX2
ABUX2_452 [_682__1_] _682__1_bF$buf3 d_lut_BUX2
ABUX2_453 [_682__1_] _682__1_bF$buf2 d_lut_BUX2
ABUX2_454 [_682__1_] _682__1_bF$buf1 d_lut_BUX2
ABUX2_455 [_682__1_] _682__1_bF$buf0 d_lut_BUX2
ABUX2_456 [_1240_] _1240__bF$buf6 d_lut_BUX2
ABUX2_457 [_1240_] _1240__bF$buf5 d_lut_BUX2
ABUX2_458 [_1240_] _1240__bF$buf4 d_lut_BUX2
ABUX2_459 [_1240_] _1240__bF$buf3 d_lut_BUX2
ABUX2_460 [_1240_] _1240__bF$buf2 d_lut_BUX2
ABUX2_461 [_1240_] _1240__bF$buf1 d_lut_BUX2
ABUX2_462 [_1240_] _1240__bF$buf0 d_lut_BUX2
ABUX2_463 [CTRL.cyc] CTRL.cyc_bF$buf14 d_lut_BUX2
ABUX2_464 [CTRL.cyc] CTRL.cyc_bF$buf13 d_lut_BUX2
ABUX2_465 [CTRL.cyc] CTRL.cyc_bF$buf12 d_lut_BUX2
ABUX2_466 [CTRL.cyc] CTRL.cyc_bF$buf11 d_lut_BUX2
ABUX2_467 [CTRL.cyc] CTRL.cyc_bF$buf10 d_lut_BUX2
ABUX2_468 [CTRL.cyc] CTRL.cyc_bF$buf9 d_lut_BUX2
ABUX2_469 [CTRL.cyc] CTRL.cyc_bF$buf8 d_lut_BUX2
ABUX2_470 [CTRL.cyc] CTRL.cyc_bF$buf7 d_lut_BUX2
ABUX2_471 [CTRL.cyc] CTRL.cyc_bF$buf6 d_lut_BUX2
ABUX2_472 [CTRL.cyc] CTRL.cyc_bF$buf5 d_lut_BUX2
ABUX2_473 [CTRL.cyc] CTRL.cyc_bF$buf4 d_lut_BUX2
ABUX2_474 [CTRL.cyc] CTRL.cyc_bF$buf3 d_lut_BUX2
ABUX2_475 [CTRL.cyc] CTRL.cyc_bF$buf2 d_lut_BUX2
ABUX2_476 [CTRL.cyc] CTRL.cyc_bF$buf1 d_lut_BUX2
ABUX2_477 [CTRL.cyc] CTRL.cyc_bF$buf0 d_lut_BUX2
ABUX2_478 [_1525_] _1525__bF$buf4 d_lut_BUX2
ABUX2_479 [_1525_] _1525__bF$buf3 d_lut_BUX2
ABUX2_480 [_1525_] _1525__bF$buf2 d_lut_BUX2
ABUX2_481 [_1525_] _1525__bF$buf1 d_lut_BUX2
ABUX2_482 [_1525_] _1525__bF$buf0 d_lut_BUX2
ABUX2_483 [_1143_] _1143__bF$buf4 d_lut_BUX2
ABUX2_484 [_1143_] _1143__bF$buf3 d_lut_BUX2
ABUX2_485 [_1143_] _1143__bF$buf2 d_lut_BUX2
ABUX2_486 [_1143_] _1143__bF$buf1 d_lut_BUX2
ABUX2_487 [_1143_] _1143__bF$buf0 d_lut_BUX2
ABUX2_488 [_2195_] _2195__bF$buf3 d_lut_BUX2
ABUX2_489 [_2195_] _2195__bF$buf2 d_lut_BUX2
ABUX2_490 [_2195_] _2195__bF$buf1 d_lut_BUX2
ABUX2_491 [_2195_] _2195__bF$buf0 d_lut_BUX2
ABUX2_492 [_909_] _909__bF$buf4 d_lut_BUX2
ABUX2_493 [_909_] _909__bF$buf3 d_lut_BUX2
ABUX2_494 [_909_] _909__bF$buf2 d_lut_BUX2
ABUX2_495 [_909_] _909__bF$buf1 d_lut_BUX2
ABUX2_496 [_909_] _909__bF$buf0 d_lut_BUX2
ABUX2_497 [_471_] _471__bF$buf7 d_lut_BUX2
ABUX2_498 [_471_] _471__bF$buf6 d_lut_BUX2
ABUX2_499 [_471_] _471__bF$buf5 d_lut_BUX2
ABUX2_500 [_471_] _471__bF$buf4 d_lut_BUX2
ABUX2_501 [_471_] _471__bF$buf3 d_lut_BUX2
ABUX2_502 [_471_] _471__bF$buf2 d_lut_BUX2
ABUX2_503 [_471_] _471__bF$buf1 d_lut_BUX2
ABUX2_504 [_471_] _471__bF$buf0 d_lut_BUX2
ABUX2_505 [ALU.func7_5_] ALU.func7_5_bF$buf3 d_lut_BUX2
ABUX2_506 [ALU.func7_5_] ALU.func7_5_bF$buf2 d_lut_BUX2